/*---------------------------------------------------------------------------*\
  =========                 |
  \\      /  F ield         | OpenFOAM: The Open Source CFD Toolbox
   \\    /   O peration     | Website:  https://openfoam.org
    \\  /    A nd           | Version:  8
     \\/     M anipulation  |
\*---------------------------------------------------------------------------*/
Build  : 8
Exec   : snappyHexMesh -parallel -overwrite
Date   : Apr 14 2021
Time   : 21:03:41
Host   : "Arch"
PID    : 22422
I/O    : uncollated
Case   : /home/apaaris/git/cfd/cc
nProcs : 4
Slaves : 
3
(
"Arch.22423"
"Arch.22424"
"Arch.22425"
)

Pstream initialized with:
    floatTransfer      : 0
    nProcsSimpleSum    : 0
    commsType          : nonBlocking
    polling iterations : 0
sigFpe : Enabling floating point exception trapping (FOAM_SIGFPE).
fileModificationChecking : Monitoring run-time modified files using timeStampMaster (fileModificationSkew 10)
allowSystemOperations : Allowing user-supplied system call operations

// * * * * * * * * * * * * * * * * * * * * * * * * * * * * * * * * * * * * * //
Create time

Create mesh for time = 0

Read mesh in = 0 s

Overall mesh bounding box  : (-5 -4 0) (15 4 8)
Relative tolerance         : 1e-06
Absolute matching distance : 2.29783e-05

Reading refinement surfaces.
Read refinement surfaces in = 0.17 s

Reading refinement shells.
Refinement level 4 for all cells inside refinementBox
Read refinement shells in = 0 s

Setting refinement level of surface to be consistent with shells.
Checked shell refinement in = 0 s

Reading features.
Read edgeMesh monkey.eMesh
    points      : 435
    edges       : 419
    boundingBox : (1.21995 -1.22451 3.82479) (2.46829 1.22451 4.49821)

Refinement level according to distance to "monkey.eMesh" (435 points, 419 edges).
    level 6 for all cells within 0 metre.
Read features in = 0 s


Determining initial surface intersections
-----------------------------------------

Edge intersection testing:
    Number of edges             : 4224
    Number of edges to retest   : 4224
    Number of intersected edges : 17
Calculated surface intersections in = 0.15 s

Initial mesh : cells:1280  faces:4224  points:1701
Cells per refinement level:
    0	1280

Adding patches for surface regions
----------------------------------

Patch Type                Region                        
----- ----                ------                        
motorBike:

5     wall                motorBike                     

Added patches in = 0 s

[3] Selecting decompositionMethod hierarchical
[0] Selecting decompositionMethod hierarchical
Layer thickness specified as final layer and expansion ratio.
[2] Selecting decompositionMethod hierarchical
[1] Selecting decompositionMethod hierarchical

Refinement phase
----------------

Found point (3.0001 3.0001 0.43) in cell 38 on processor 1

Feature refinement iteration 0
------------------------------

Marked for refinement due to explicit features             : 8 cells.
Determined cells to refine in = 0 s
Selected for feature refinement : 8 cells (out of 1280)
Edge intersection testing:
    Number of edges             : 4437
    Number of edges to retest   : 357
    Number of intersected edges : 55
Refined mesh in = 0.01 s
After refinement feature refinement iteration 0 : cells:1336  faces:4437  points:1810
Cells per refinement level:
    0	1272
    1	64
Balanced mesh in = 0.01 s
After balancing feature refinement iteration 0 : cells:1336  faces:4437  points:1810
Cells per refinement level:
    0	1272
    1	64

Feature refinement iteration 1
------------------------------

Marked for refinement due to explicit features             : 10 cells.
Determined cells to refine in = 0 s
Selected for feature refinement : 20 cells (out of 1336)
Edge intersection testing:
    Number of edges             : 4950
    Number of edges to retest   : 887
    Number of intersected edges : 127
Refined mesh in = 0.01 s
After refinement feature refinement iteration 1 : cells:1476  faces:4950  points:2059
Cells per refinement level:
    0	1262
    1	134
    2	80
Balanced mesh in = 0.01 s
After balancing feature refinement iteration 1 : cells:1476  faces:4950  points:2059
Cells per refinement level:
    0	1262
    1	134
    2	80

Feature refinement iteration 2
------------------------------

Marked for refinement due to explicit features             : 30 cells.
Determined cells to refine in = 0 s
Selected for feature refinement : 66 cells (out of 1476)
Edge intersection testing:
    Number of edges             : 6600
    Number of edges to retest   : 2530
    Number of intersected edges : 353
Refined mesh in = 0.01 s
After refinement feature refinement iteration 2 : cells:1938  faces:6600  points:2815
Cells per refinement level:
    0	1250
    1	206
    2	242
    3	240
Balanced mesh in = 0.02 s
After balancing feature refinement iteration 2 : cells:1938  faces:6600  points:2815
Cells per refinement level:
    0	1250
    1	206
    2	242
    3	240

Feature refinement iteration 3
------------------------------

Marked for refinement due to explicit features             : 72 cells.
Determined cells to refine in = 0 s
Selected for feature refinement : 156 cells (out of 1938)
Edge intersection testing:
    Number of edges             : 10485
    Number of edges to retest   : 6196
    Number of intersected edges : 942
Refined mesh in = 0.02 s
After refinement feature refinement iteration 3 : cells:3030  faces:10485  points:4567
Cells per refinement level:
    0	1240
    1	262
    2	384
    3	568
    4	576
Balanced mesh in = 0.03 s
After balancing feature refinement iteration 3 : cells:3030  faces:10485  points:4567
Cells per refinement level:
    0	1240
    1	262
    2	384
    3	568
    4	576

Feature refinement iteration 4
------------------------------

Marked for refinement due to explicit features             : 140 cells.
Determined cells to refine in = 0.01 s
Selected for feature refinement : 296 cells (out of 3030)
Edge intersection testing:
    Number of edges             : 17904
    Number of edges to retest   : 12349
    Number of intersected edges : 2158
Refined mesh in = 0.03 s
After refinement feature refinement iteration 4 : cells:5102  faces:17904  points:7992
Cells per refinement level:
    0	1236
    1	282
    2	442
    3	770
    4	1252
    5	1120
Balanced mesh in = 0.04 s
After balancing feature refinement iteration 4 : cells:5102  faces:17904  points:7992
Cells per refinement level:
    0	1236
    1	282
    2	442
    3	770
    4	1252
    5	1120

Feature refinement iteration 5
------------------------------

Marked for refinement due to explicit features             : 276 cells.
Determined cells to refine in = 0.02 s
Selected for feature refinement : 616 cells (out of 5102)
Edge intersection testing:
    Number of edges             : 33375
    Number of edges to retest   : 25034
    Number of intersected edges : 4401
Refined mesh in = 0.05 s
After refinement feature refinement iteration 5 : cells:9414  faces:33375  points:15123
Cells per refinement level:
    0	1236
    1	278
    2	460
    3	806
    4	1614
    5	2812
    6	2208
Balanced mesh in = 0.08 s
After balancing feature refinement iteration 5 : cells:9414  faces:33375  points:15123
Cells per refinement level:
    0	1236
    1	278
    2	460
    3	806
    4	1614
    5	2812
    6	2208

Feature refinement iteration 6
------------------------------

Marked for refinement due to explicit features             : 0 cells.
Determined cells to refine in = 0.03 s
Selected for feature refinement : 0 cells (out of 9414)
Stopping refining since too few cells selected.


Surface refinement iteration 0
------------------------------

Marked for refinement due to surface intersection          : 1132 cells.
Marked for refinement due to curvature/regions             : 758 cells.
Determined cells to refine in = 0.01 s
Selected for refinement : 2162 cells (out of 9414)
Edge intersection testing:
    Number of edges             : 83958
    Number of edges to retest   : 73523
    Number of intersected edges : 10043
Refined mesh in = 0.11 s
After refinement surface refinement iteration 0 : cells:24548  faces:83958  points:35515
Cells per refinement level:
    0	1228
    1	290
    2	702
    3	1834
    4	3720
    5	8502
    6	8272
Balanced mesh in = 0.17 s
After balancing surface refinement iteration 0 : cells:24548  faces:83958  points:35515
Cells per refinement level:
    0	1228
    1	290
    2	702
    3	1834
    4	3720
    5	8502
    6	8272

Surface refinement iteration 1
------------------------------

Marked for refinement due to surface intersection          : 1546 cells.
Marked for refinement due to curvature/regions             : 818 cells.
Determined cells to refine in = 0.03 s
Selected for refinement : 2676 cells (out of 24548)
Edge intersection testing:
    Number of edges             : 146652
    Number of edges to retest   : 103110
    Number of intersected edges : 16851
Refined mesh in = 0.15 s
After refinement surface refinement iteration 1 : cells:43280  faces:146652  points:60920
Cells per refinement level:
    0	1222
    1	322
    2	714
    3	2242
    4	6680
    5	17284
    6	14816
Balanced mesh in = 0.24 s
After balancing surface refinement iteration 1 : cells:43280  faces:146652  points:60920
Cells per refinement level:
    0	1222
    1	322
    2	714
    3	2242
    4	6680
    5	17284
    6	14816

Surface refinement iteration 2
------------------------------

Marked for refinement due to surface intersection          : 1718 cells.
Marked for refinement due to curvature/regions             : 898 cells.
Determined cells to refine in = 0.04 s
Selected for refinement : 2900 cells (out of 43280)
Edge intersection testing:
    Number of edges             : 214977
    Number of edges to retest   : 110414
    Number of intersected edges : 24310
Refined mesh in = 0.19 s
After refinement surface refinement iteration 2 : cells:63580  faces:214977  points:88821
Cells per refinement level:
    0	1222
    1	312
    2	740
    3	2298
    4	8126
    5	28882
    6	22000
Balanced mesh in = 0.3 s
After balancing surface refinement iteration 2 : cells:63580  faces:214977  points:88821
Cells per refinement level:
    0	1222
    1	312
    2	740
    3	2298
    4	8126
    5	28882
    6	22000

Surface refinement iteration 3
------------------------------

Marked for refinement due to surface intersection          : 954 cells.
Marked for refinement due to curvature/regions             : 430 cells.
Determined cells to refine in = 0.05 s
Selected for refinement : 1548 cells (out of 63580)
Edge intersection testing:
    Number of edges             : 250986
    Number of edges to retest   : 62470
    Number of intersected edges : 28038
Refined mesh in = 0.19 s
After refinement surface refinement iteration 3 : cells:74416  faces:250986  points:103108
Cells per refinement level:
    0	1222
    1	312
    2	728
    3	2268
    4	8154
    5	36292
    6	25440
Balanced mesh in = 0.3 s
After balancing surface refinement iteration 3 : cells:74416  faces:250986  points:103108
Cells per refinement level:
    0	1222
    1	312
    2	728
    3	2268
    4	8154
    5	36292
    6	25440

Surface refinement iteration 4
------------------------------

Marked for refinement due to surface intersection          : 20 cells.
Marked for refinement due to curvature/regions             : 128 cells.
Determined cells to refine in = 0.06 s
Selected for refinement : 184 cells (out of 74416)
Edge intersection testing:
    Number of edges             : 255312
    Number of edges to retest   : 11953
    Number of intersected edges : 28362
Refined mesh in = 0.16 s
After refinement surface refinement iteration 4 : cells:75704  faces:255312  points:104890
Cells per refinement level:
    0	1222
    1	312
    2	728
    3	2266
    4	8116
    5	36596
    6	26464
Skipping balancing since max unbalance 0.0153757 is less than allowable 0.1

Surface refinement iteration 5
------------------------------

Marked for refinement due to surface intersection          : 0 cells.
Marked for refinement due to curvature/regions             : 8 cells.
Determined cells to refine in = 0.06 s
Selected for refinement : 8 cells (out of 75704)
Edge intersection testing:
    Number of edges             : 255480
    Number of edges to retest   : 714
    Number of intersected edges : 28384
Refined mesh in = 0.16 s
After refinement surface refinement iteration 5 : cells:75760  faces:255480  points:104946
Cells per refinement level:
    0	1222
    1	312
    2	728
    3	2266
    4	8116
    5	36588
    6	26528
Skipping balancing since max unbalance 0.0161035 is less than allowable 0.1

Surface refinement iteration 6
------------------------------

Marked for refinement due to surface intersection          : 0 cells.
Marked for refinement due to curvature/regions             : 0 cells.
Determined cells to refine in = 0.06 s
Selected for refinement : 0 cells (out of 75760)
Stopping refining since too few cells selected.


Removing mesh beyond surface intersections
------------------------------------------

Found point (3.0001 3.0001 0.43) in global region 0 out of 3 regions.
Keeping all cells in region 0 containing point (3.0001 3.0001 0.43)
Selected for keeping : 75760 cells.
Edge intersection testing:
    Number of edges             : 255480
    Number of edges to retest   : 0
    Number of intersected edges : 28384

Shell refinement iteration 0
----------------------------

Marked for refinement due to distance to explicit features : 0 cells.
Marked for refinement due to refinement shells             : 57 cells.
Determined cells to refine in = 0.37 s
Selected for internal refinement : 12712 cells (out of 75760)
Edge intersection testing:
    Number of edges             : 528579
    Number of edges to retest   : 496505
    Number of intersected edges : 33923
Refined mesh in = 0.44 s
After refinement shell refinement iteration 0 : cells:164744  faces:528579  points:199719
Cells per refinement level:
    0	1102
    1	1139
    2	1542
    3	3432
    4	10526
    5	63571
    6	83432
Balanced mesh in = 0.64 s
After balancing shell refinement iteration 0 : cells:164744  faces:528579  points:199719
Cells per refinement level:
    0	1102
    1	1139
    2	1542
    3	3432
    4	10526
    5	63571
    6	83432

Shell refinement iteration 1
----------------------------

Marked for refinement due to distance to explicit features : 0 cells.
Marked for refinement due to refinement shells             : 280 cells.
Determined cells to refine in = 0.1 s
Selected for internal refinement : 4668 cells (out of 164744)
Edge intersection testing:
    Number of edges             : 629331
    Number of edges to retest   : 284785
    Number of intersected edges : 35819
Refined mesh in = 0.4 s
After refinement shell refinement iteration 1 : cells:197420  faces:629331  points:235100
Cells per refinement level:
    0	992
    1	1750
    2	3442
    3	4787
    4	14993
    5	67584
    6	103872
Skipping balancing since max unbalance 0.0495593 is less than allowable 0.1

Shell refinement iteration 2
----------------------------

Marked for refinement due to distance to explicit features : 0 cells.
Marked for refinement due to refinement shells             : 2336 cells.
Determined cells to refine in = 0.12 s
Selected for internal refinement : 3498 cells (out of 197420)
Edge intersection testing:
    Number of edges             : 705846
    Number of edges to retest   : 127664
    Number of intersected edges : 35935
Refined mesh in = 0.39 s
After refinement shell refinement iteration 2 : cells:221906  faces:705846  points:262716
Cells per refinement level:
    0	892
    1	2219
    2	4381
    3	17447
    4	22909
    5	68858
    6	105200
Skipping balancing since max unbalance 0.0968887 is less than allowable 0.1

Shell refinement iteration 3
----------------------------

Marked for refinement due to distance to explicit features : 0 cells.
Marked for refinement due to refinement shells             : 12128 cells.
Determined cells to refine in = 0.11 s
Selected for internal refinement : 12978 cells (out of 221906)
Edge intersection testing:
    Number of edges             : 984885
    Number of edges to retest   : 342417
    Number of intersected edges : 35994
Refined mesh in = 0.62 s
After refinement shell refinement iteration 3 : cells:312752  faces:984885  points:360129
Cells per refinement level:
    0	881
    1	1990
    2	5877
    3	14232
    4	115185
    5	68819
    6	105768
Balanced mesh in = 1.18 s
After balancing shell refinement iteration 3 : cells:312752  faces:984885  points:360129
Cells per refinement level:
    0	881
    1	1990
    2	5877
    3	14232
    4	115185
    5	68819
    6	105768

Shell refinement iteration 4
----------------------------

Marked for refinement due to distance to explicit features : 0 cells.
Marked for refinement due to refinement shells             : 4864 cells.
Determined cells to refine in = 0.14 s
Selected for internal refinement : 5771 cells (out of 312752)
Edge intersection testing:
    Number of edges             : 1106934
    Number of edges to retest   : 197843
    Number of intersected edges : 36002
Refined mesh in = 0.58 s
After refinement shell refinement iteration 4 : cells:353149  faces:1106934  points:401388
Cells per refinement level:
    0	844
    1	2147
    2	6336
    3	14586
    4	154119
    5	68981
    6	106136
Balanced mesh in = 1.24 s
After balancing shell refinement iteration 4 : cells:353149  faces:1106934  points:401388
Cells per refinement level:
    0	844
    1	2147
    2	6336
    3	14586
    4	154119
    5	68981
    6	106136

Shell refinement iteration 5
----------------------------

Marked for refinement due to distance to explicit features : 0 cells.
Marked for refinement due to refinement shells             : 0 cells.
Determined cells to refine in = 0.15 s
Selected for internal refinement : 78 cells (out of 353149)
Edge intersection testing:
    Number of edges             : 1108602
    Number of edges to retest   : 6166
    Number of intersected edges : 36002
Refined mesh in = 0.53 s
After refinement shell refinement iteration 5 : cells:353695  faces:1108602  points:401965
Cells per refinement level:
    0	841
    1	2123
    2	6719
    3	14577
    4	154246
    5	69053
    6	106136
Skipping balancing since max unbalance 0.000655938 is less than allowable 0.1

Shell refinement iteration 6
----------------------------

Marked for refinement due to distance to explicit features : 0 cells.
Marked for refinement due to refinement shells             : 0 cells.
Determined cells to refine in = 0.15 s
Selected for internal refinement : 28 cells (out of 353695)
Edge intersection testing:
    Number of edges             : 1109211
    Number of edges to retest   : 2035
    Number of intersected edges : 36002
Refined mesh in = 0.73 s
After refinement shell refinement iteration 6 : cells:353891  faces:1109211  points:402182
Cells per refinement level:
    0	829
    1	2213
    2	6757
    3	14657
    4	154246
    5	69053
    6	106136
Skipping balancing since max unbalance 0.00122073 is less than allowable 0.1

Shell refinement iteration 7
----------------------------

Marked for refinement due to distance to explicit features : 0 cells.
Marked for refinement due to refinement shells             : 0 cells.
Determined cells to refine in = 0.21 s
Selected for internal refinement : 0 cells (out of 353891)
Stopping refining since too few cells selected.


Dangling coarse cells refinement iteration 0
--------------------------------------------

Determined cells to refine in = 0 s
Selected for refinement : 56 cells (out of 353891)
Edge intersection testing:
    Number of edges             : 1110051
    Number of edges to retest   : 6725
    Number of intersected edges : 35986
Refined mesh in = 0.88 s
After refinement coarse cell refinement iteration 0 : cells:354283  faces:1110051  points:402294
Cells per refinement level:
    0	829
    1	2209
    2	6789
    3	14657
    4	154240
    5	69055
    6	106504
Skipping balancing since max unbalance 0.00110647 is less than allowable 0.1

Dangling coarse cells refinement iteration 1
--------------------------------------------

Determined cells to refine in = 0.12 s
Selected for refinement : 0 cells (out of 354283)
Stopping refining since too few cells selected.


Dangling coarse cells refinement iteration 0
--------------------------------------------

Determined cells to refine in = 0 s
Selected for refinement : 1 cells (out of 354283)
Edge intersection testing:
    Number of edges             : 1110063
    Number of edges to retest   : 132
    Number of intersected edges : 35984
Refined mesh in = 0.85 s
After refinement coarse cell refinement iteration 0 : cells:354290  faces:1110063  points:402295
Cells per refinement level:
    0	829
    1	2209
    2	6789
    3	14657
    4	154240
    5	69054
    6	106512
Skipping balancing since max unbalance 0.00108386 is less than allowable 0.1

Dangling coarse cells refinement iteration 1
--------------------------------------------

Determined cells to refine in = 0.12 s
Selected for refinement : 0 cells (out of 354290)
Stopping refining since too few cells selected.


Splitting mesh at surface intersections
---------------------------------------

Introducing baffles for 35984 faces that are intersected by the surface.

Edge intersection testing:
    Number of edges             : 1146047
    Number of edges to retest   : 194602
    Number of intersected edges : 71304
Created baffles in = 0.87 s


After introducing baffles : cells:354290  faces:1146047  points:402367
Cells per refinement level:
    0	829
    1	2209
    2	6789
    3	14657
    4	154240
    5	69054
    6	106512

Introducing baffles to block off problem cells
----------------------------------------------

markFacesOnProblemCells : marked 1097 additional internal faces to be converted into baffles.
Analyzed problem cells in = 0.58 s


Introducing baffles to delete problem cells.

Edge intersection testing:
    Number of edges             : 1147144
    Number of edges to retest   : 6817
    Number of intersected edges : 71304
Created baffles in = 0.74 s


After introducing baffles : cells:354290  faces:1147144  points:402396
Cells per refinement level:
    0	829
    1	2209
    2	6789
    3	14657
    4	154240
    5	69054
    6	106512

Remove unreachable sections of mesh
-----------------------------------

Keeping all cells in region 0 containing point (3.0001 3.0001 0.43)
Selected for keeping : 275482 cells.
Edge intersection testing:
    Number of edges             : 879765
    Number of edges to retest   : 0
    Number of intersected edges : 32770
Split mesh in = 2.25 s


After subsetting : cells:275482  faces:879765  points:329482
Cells per refinement level:
    0	829
    1	2209
    2	6789
    3	14490
    4	151321
    5	43126
    6	56718

Handling cells with snap problems
---------------------------------

Introducing baffles for 32770 faces that are intersected by the surface.

Edge intersection testing:
    Number of edges             : 879765
    Number of edges to retest   : 92928
    Number of intersected edges : 32770
Created baffles in = 0.6 s


After introducing baffles : cells:275482  faces:879765  points:329482
Cells per refinement level:
    0	829
    1	2209
    2	6789
    3	14490
    4	151321
    5	43126
    6	56718

Introducing baffles to block off problem cells
----------------------------------------------

markFacesOnProblemCells : marked 0 additional internal faces to be converted into baffles.
Analyzed problem cells in = 0.42 s


Introducing baffles to delete problem cells.

Edge intersection testing:
    Number of edges             : 879765
    Number of edges to retest   : 0
    Number of intersected edges : 32770
Created baffles in = 0.4 s


After introducing baffles : cells:275482  faces:879765  points:329482
Cells per refinement level:
    0	829
    1	2209
    2	6789
    3	14490
    4	151321
    5	43126
    6	56718

Remove unreachable sections of mesh
-----------------------------------

Keeping all cells in region 0 containing point (3.0001 3.0001 0.43)
Selected for keeping : 275482 cells.
Edge intersection testing:
    Number of edges             : 879765
    Number of edges to retest   : 0
    Number of intersected edges : 32770
Split mesh in = 1.83 s


After subsetting : cells:275482  faces:879765  points:329482
Cells per refinement level:
    0	829
    1	2209
    2	6789
    3	14490
    4	151321
    5	43126
    6	56718

Merge free-standing baffles
---------------------------

freeStandingBaffles : detected 26 free-standing baffles out of 26

freeStandingBaffles : detected 22 planar (within 30 degrees) free-standing baffles out of 26

Detected free-standing baffles : 22
Edge intersection testing:
    Number of edges             : 879743
    Number of edges to retest   : 22
    Number of intersected edges : 32748

Introducing baffles to block off problem cells
----------------------------------------------

markFacesOnProblemCells : marked 0 additional internal faces to be converted into baffles.
Analyzed problem cells in = 1.05 s


Introducing baffles to delete problem cells.

Edge intersection testing:
    Number of edges             : 879743
    Number of edges to retest   : 0
    Number of intersected edges : 32748
Created baffles in = 0.41 s


After introducing baffles : cells:275482  faces:879743  points:329482
Cells per refinement level:
    0	829
    1	2209
    2	6789
    3	14490
    4	151321
    5	43126
    6	56718
Merged free-standing baffles in = 0.06 s


dupNonManifoldPoints : Found : 4 non-manifold points (out of 341269)
Edge intersection testing:
    Number of edges             : 879743
    Number of edges to retest   : 0
    Number of intersected edges : 32748
Detected unsplittable baffles : 0

Merge refined boundary faces
----------------------------

Merging 204 sets of faces.

Edge intersection testing:
    Number of edges             : 879463
    Number of edges to retest   : 1704
    Number of intersected edges : 32479

Undo iteration 0
----------------
Checking faces in error :
    non-orthogonality > 65  degrees                        : 0
    faces with face pyramid volume < 1e-13                 : 0
    faces with face-decomposition tet quality < 1e-15      : 0
    faces with concavity > 80  degrees                     : 0
    faces with skewness > 4   (internal) or 20  (boundary) : 0
    faces with interpolation weights (0..1)  < 0.02        : 0
    faces with volume ratio of neighbour cells < 0.01      : 0
    faces with face twist < 0.02                           : 0
    faces on cells with determinant < 0.001                : 0

Merging all points on surface that
- are used by only two boundary faces and
- make an angle with a cosine of more than 0.707107.

Removing 239 straight edge points ...

Edge intersection testing:
    Number of edges             : 879463
    Number of edges to retest   : 1904
    Number of intersected edges : 32479

Undo iteration 0
----------------
Checking faces in error :
    non-orthogonality > 65  degrees                        : 0
    faces with face pyramid volume < 1e-13                 : 0
    faces with face-decomposition tet quality < 1e-15      : 0
    faces with concavity > 80  degrees                     : 0
    faces with skewness > 4   (internal) or 20  (boundary) : 0
    faces with interpolation weights (0..1)  < 0.02        : 0
    faces with volume ratio of neighbour cells < 0.01      : 0
    faces with face twist < 0.02                           : 0
    faces on cells with determinant < 0.001                : 0

Doing final balancing
---------------------

Found 0 zoned faces to keep together.
Found 0 separated coupled faces to keep together.
Refined mesh : cells:275482  faces:879463  points:329209
Cells per refinement level:
    0	829
    1	2209
    2	6789
    3	14490
    4	151321
    5	43126
    6	56718
Writing mesh to time constant
Wrote mesh in = 4.04 s.
Mesh refined in = 25.98 s.

Morphing phase
--------------


Snapping to features in 10 iterations ...
Constructing mesh displacer ...
Using mesh parameters 
{
    maxNonOrtho     65;
    maxBoundarySkewness 20;
    maxInternalSkewness 4;
    maxConcave      80;
    minVol          1e-13;
    minTetQuality   1e-15;
    minArea         -1;
    minTwist        0.02;
    minDeterminant  0.001;
    minFaceWeight   0.02;
    minVolRatio     0.01;
    minTriangleTwist -1;
    nSmoothScale    4;
    errorReduction  0.75;
}


Checking initial mesh ...
Checking faces in error :
    non-orthogonality > 65  degrees                        : 0
    faces with face pyramid volume < 1e-13                 : 0
    faces with face-decomposition tet quality < 1e-15      : 0
    faces with concavity > 80  degrees                     : 0
    faces with skewness > 4   (internal) or 20  (boundary) : 0
    faces with interpolation weights (0..1)  < 0.02        : 0
    faces with volume ratio of neighbour cells < 0.01      : 0
    faces with face twist < 0.02                           : 0
    faces on cells with determinant < 0.001                : 0
Detected 0 illegal faces (concave, zero area or negative cell pyramid volume)
Checked initial mesh in = 0.56 s


Smoothing patch points ...
Smoothing iteration 0
Found 8 non-manifold point(s).

Scaling iteration 0
Moving mesh using displacement scaling : min:1  max:1
Checking faces in error :
    non-orthogonality > 65  degrees                        : 0
    faces with face pyramid volume < 1e-13                 : 0
    faces with face-decomposition tet quality < 1e-15      : 0
    faces with concavity > 80  degrees                     : 0
    faces with skewness > 4   (internal) or 20  (boundary) : 0
    faces with interpolation weights (0..1)  < 0.02        : 0
    faces with volume ratio of neighbour cells < 0.01      : 0
    faces with face twist < 0.02                           : 0
    faces on cells with determinant < 0.001                : 0
Successfully moved mesh

Smoothing iteration 1
Found 0 non-manifold point(s).

Scaling iteration 0
Moving mesh using displacement scaling : min:1  max:1
Checking faces in error :
    non-orthogonality > 65  degrees                        : 0
    faces with face pyramid volume < 1e-13                 : 0
    faces with face-decomposition tet quality < 1e-15      : 1
    faces with concavity > 80  degrees                     : 0
    faces with skewness > 4   (internal) or 20  (boundary) : 0
    faces with interpolation weights (0..1)  < 0.02        : 0
    faces with volume ratio of neighbour cells < 0.01      : 0
    faces with face twist < 0.02                           : 0
    faces on cells with determinant < 0.001                : 0

Scaling iteration 1
Moving mesh using displacement scaling : min:0.75  max:1
Checking faces in error :
    non-orthogonality > 65  degrees                        : 0
    faces with face pyramid volume < 1e-13                 : 0
    faces with face-decomposition tet quality < 1e-15      : 1
    faces with concavity > 80  degrees                     : 0
    faces with skewness > 4   (internal) or 20  (boundary) : 0
    faces with interpolation weights (0..1)  < 0.02        : 0
    faces with volume ratio of neighbour cells < 0.01      : 0
    faces with face twist < 0.02                           : 0
    faces on cells with determinant < 0.001                : 0

Scaling iteration 2
Moving mesh using displacement scaling : min:0.5625  max:1
Checking faces in error :
    non-orthogonality > 65  degrees                        : 0
    faces with face pyramid volume < 1e-13                 : 0
    faces with face-decomposition tet quality < 1e-15      : 1
    faces with concavity > 80  degrees                     : 0
    faces with skewness > 4   (internal) or 20  (boundary) : 0
    faces with interpolation weights (0..1)  < 0.02        : 0
    faces with volume ratio of neighbour cells < 0.01      : 0
    faces with face twist < 0.02                           : 0
    faces on cells with determinant < 0.001                : 0

Scaling iteration 3
Moving mesh using displacement scaling : min:0.421875  max:1
Checking faces in error :
    non-orthogonality > 65  degrees                        : 0
    faces with face pyramid volume < 1e-13                 : 0
    faces with face-decomposition tet quality < 1e-15      : 0
    faces with concavity > 80  degrees                     : 0
    faces with skewness > 4   (internal) or 20  (boundary) : 0
    faces with interpolation weights (0..1)  < 0.02        : 0
    faces with volume ratio of neighbour cells < 0.01      : 0
    faces with face twist < 0.02                           : 0
    faces on cells with determinant < 0.001                : 0
Successfully moved mesh

Smoothing iteration 2
Found 0 non-manifold point(s).

Scaling iteration 0
Moving mesh using displacement scaling : min:1  max:1
Checking faces in error :
    non-orthogonality > 65  degrees                        : 0
    faces with face pyramid volume < 1e-13                 : 0
    faces with face-decomposition tet quality < 1e-15      : 1
    faces with concavity > 80  degrees                     : 0
    faces with skewness > 4   (internal) or 20  (boundary) : 0
    faces with interpolation weights (0..1)  < 0.02        : 0
    faces with volume ratio of neighbour cells < 0.01      : 0
    faces with face twist < 0.02                           : 0
    faces on cells with determinant < 0.001                : 0

Scaling iteration 1
Moving mesh using displacement scaling : min:0.75  max:1
Checking faces in error :
    non-orthogonality > 65  degrees                        : 0
    faces with face pyramid volume < 1e-13                 : 0
    faces with face-decomposition tet quality < 1e-15      : 1
    faces with concavity > 80  degrees                     : 0
    faces with skewness > 4   (internal) or 20  (boundary) : 0
    faces with interpolation weights (0..1)  < 0.02        : 0
    faces with volume ratio of neighbour cells < 0.01      : 0
    faces with face twist < 0.02                           : 0
    faces on cells with determinant < 0.001                : 0

Scaling iteration 2
Moving mesh using displacement scaling : min:0.5625  max:1
Checking faces in error :
    non-orthogonality > 65  degrees                        : 0
    faces with face pyramid volume < 1e-13                 : 0
    faces with face-decomposition tet quality < 1e-15      : 1
    faces with concavity > 80  degrees                     : 0
    faces with skewness > 4   (internal) or 20  (boundary) : 0
    faces with interpolation weights (0..1)  < 0.02        : 0
    faces with volume ratio of neighbour cells < 0.01      : 0
    faces with face twist < 0.02                           : 0
    faces on cells with determinant < 0.001                : 0

Scaling iteration 3
Moving mesh using displacement scaling : min:0.421875  max:1
Checking faces in error :
    non-orthogonality > 65  degrees                        : 0
    faces with face pyramid volume < 1e-13                 : 0
    faces with face-decomposition tet quality < 1e-15      : 1
    faces with concavity > 80  degrees                     : 0
    faces with skewness > 4   (internal) or 20  (boundary) : 0
    faces with interpolation weights (0..1)  < 0.02        : 0
    faces with volume ratio of neighbour cells < 0.01      : 0
    faces with face twist < 0.02                           : 0
    faces on cells with determinant < 0.001                : 0

Scaling iteration 4
Moving mesh using displacement scaling : min:0.316406  max:1
Checking faces in error :
    non-orthogonality > 65  degrees                        : 0
    faces with face pyramid volume < 1e-13                 : 0
    faces with face-decomposition tet quality < 1e-15      : 1
    faces with concavity > 80  degrees                     : 0
    faces with skewness > 4   (internal) or 20  (boundary) : 0
    faces with interpolation weights (0..1)  < 0.02        : 0
    faces with volume ratio of neighbour cells < 0.01      : 0
    faces with face twist < 0.02                           : 0
    faces on cells with determinant < 0.001                : 0

Scaling iteration 5
Displacement scaling for error reduction set to 0.
Moving mesh using displacement scaling : min:0.237305  max:1
Checking faces in error :
    non-orthogonality > 65  degrees                        : 0
    faces with face pyramid volume < 1e-13                 : 0
    faces with face-decomposition tet quality < 1e-15      : 1
    faces with concavity > 80  degrees                     : 0
    faces with skewness > 4   (internal) or 20  (boundary) : 0
    faces with interpolation weights (0..1)  < 0.02        : 0
    faces with volume ratio of neighbour cells < 0.01      : 0
    faces with face twist < 0.02                           : 0
    faces on cells with determinant < 0.001                : 0

Scaling iteration 6
Moving mesh using displacement scaling : min:0  max:1
Checking faces in error :
    non-orthogonality > 65  degrees                        : 0
    faces with face pyramid volume < 1e-13                 : 0
    faces with face-decomposition tet quality < 1e-15      : 0
    faces with concavity > 80  degrees                     : 0
    faces with skewness > 4   (internal) or 20  (boundary) : 0
    faces with interpolation weights (0..1)  < 0.02        : 0
    faces with volume ratio of neighbour cells < 0.01      : 0
    faces with face twist < 0.02                           : 0
    faces on cells with determinant < 0.001                : 0
Successfully moved mesh

Patch points smoothed in = 3.49 s



Morph iteration 0
-----------------
Calculating patchDisplacement as distance to nearest surface point ...
Wanted displacement : average:0.00285859 min:1.61262e-07 max:0.0150624
Calculated surface displacement in = 0.05 s


Detecting near surfaces ...
Overriding nearest with intersection of close gaps at 44 out of 34192 points.
Overriding displacement on features :
   implicit features    : false
   explicit features    : true
   multi-patch features : false

Detected 4 baffle edges out of 67112 edges.
Initially selected 1003 points out of 34192 for reverse attraction.
Selected 3692 points out of 34192 for reverse attraction.
Stringing feature edges : changed 55 points
Stringing feature edges : changed 3 points
Stringing feature edges : changed 0 points
Attraction:
     linear   : max:(0.00987357 0.0053234 -0.0100524) avg:(0.000197639 -4.12076e-06 2.9108e-05)
     feature  : max:(0.0217668 -0.00912653 -0.00292104) avg:(7.71661e-05 1.68029e-07 -1.29551e-06)
Feature analysis : total master points:33370 attraction to :
    feature point   : 3
    feature edge    : 285
    nearest surface : 0
    rest            : 33082

--> FOAM Warning : Displacement (-6.1027e-05 -1.04839e-05 2.37739e-05) at mesh point 3898 coord (1.24582 0.124619 4.00091) points through the surrounding patch faces
Smoothing displacement ...
Iteration 0
Iteration 10
Iteration 20
Displacement smoothed in = 0.92 s


Moving mesh ...

Iteration 0
Moving mesh using displacement scaling : min:1  max:1
Checking faces in error :
    non-orthogonality > 65  degrees                        : 0
    faces with face pyramid volume < 1e-13                 : 0
    faces with face-decomposition tet quality < 1e-15      : 0
    faces with concavity > 80  degrees                     : 0
    faces with skewness > 4   (internal) or 20  (boundary) : 0
    faces with interpolation weights (0..1)  < 0.02        : 0
    faces with volume ratio of neighbour cells < 0.01      : 0
    faces with face twist < 0.02                           : 0
    faces on cells with determinant < 0.001                : 0
Successfully moved mesh
Moved mesh in = 0.5 s



Morph iteration 1
-----------------
Calculating patchDisplacement as distance to nearest surface point ...
Wanted displacement : average:0.0026755 min:4.01432e-07 max:0.0144186
Calculated surface displacement in = 0.04 s


Detecting near surfaces ...
Overriding nearest with intersection of close gaps at 52 out of 34192 points.
Overriding displacement on features :
   implicit features    : false
   explicit features    : true
   multi-patch features : false

Detected 4 baffle edges out of 67112 edges.
Initially selected 1010 points out of 34192 for reverse attraction.
Selected 3718 points out of 34192 for reverse attraction.
Stringing feature edges : changed 63 points
Stringing feature edges : changed 4 points
Stringing feature edges : changed 0 points
Attraction:
     linear   : max:(0.00945152 0.00509584 -0.00962271) avg:(0.000177445 -3.86386e-06 2.58395e-05)
     feature  : max:(0.0216001 -0.00803274 -0.00272585) avg:(7.48448e-05 1.5096e-07 -1.41175e-06)
Feature analysis : total master points:33370 attraction to :
    feature point   : 3
    feature edge    : 292
    nearest surface : 0
    rest            : 33075

--> FOAM Warning : Displacement (-0.000274578 -4.0008e-05 7.70139e-05) at mesh point 3898 coord (1.24576 0.124609 4.00094) points through the surrounding patch faces
Smoothing displacement ...
Iteration 0
Iteration 10
Iteration 20
Displacement smoothed in = 0.9 s


Moving mesh ...

Iteration 0
Moving mesh using displacement scaling : min:1  max:1
Checking faces in error :
    non-orthogonality > 65  degrees                        : 0
    faces with face pyramid volume < 1e-13                 : 0
    faces with face-decomposition tet quality < 1e-15      : 2
    faces with concavity > 80  degrees                     : 0
    faces with skewness > 4   (internal) or 20  (boundary) : 0
    faces with interpolation weights (0..1)  < 0.02        : 0
    faces with volume ratio of neighbour cells < 0.01      : 0
    faces with face twist < 0.02                           : 0
    faces on cells with determinant < 0.001                : 0

Iteration 1
Moving mesh using displacement scaling : min:0.75  max:1
Checking faces in error :
    non-orthogonality > 65  degrees                        : 0
    faces with face pyramid volume < 1e-13                 : 0
    faces with face-decomposition tet quality < 1e-15      : 0
    faces with concavity > 80  degrees                     : 0
    faces with skewness > 4   (internal) or 20  (boundary) : 0
    faces with interpolation weights (0..1)  < 0.02        : 0
    faces with volume ratio of neighbour cells < 0.01      : 0
    faces with face twist < 0.02                           : 0
    faces on cells with determinant < 0.001                : 0
Successfully moved mesh
Moved mesh in = 0.69 s



Morph iteration 2
-----------------
Calculating patchDisplacement as distance to nearest surface point ...
Wanted displacement : average:0.00233756 min:9.84218e-11 max:0.0130338
Calculated surface displacement in = 0.05 s


Detecting near surfaces ...
Overriding nearest with intersection of close gaps at 54 out of 34192 points.
Overriding displacement on features :
   implicit features    : false
   explicit features    : true
   multi-patch features : false

Detected 4 baffle edges out of 67112 edges.
Initially selected 1010 points out of 34192 for reverse attraction.
Selected 3721 points out of 34192 for reverse attraction.
Stringing feature edges : changed 60 points
Stringing feature edges : changed 3 points
Stringing feature edges : changed 0 points
Attraction:
     linear   : max:(0.0085438 0.00460644 -0.00869856) avg:(0.000138858 -3.18884e-06 1.84648e-05)
     feature  : max:(0.020819 -0.00610958 -0.00227589) avg:(6.89887e-05 9.32797e-08 -1.32645e-06)
Feature analysis : total master points:33370 attraction to :
    feature point   : 3
    feature edge    : 293
    nearest surface : 0
    rest            : 33074

--> FOAM Warning : Displacement (-0.00062448 -8.44367e-05 0.000150375) at mesh point 3898 coord (1.24549 0.124569 4.00102) points through the surrounding patch faces
Smoothing displacement ...
Iteration 0
Iteration 10
Iteration 20
Displacement smoothed in = 0.91 s


Moving mesh ...

Iteration 0
Moving mesh using displacement scaling : min:1  max:1
Checking faces in error :
    non-orthogonality > 65  degrees                        : 0
    faces with face pyramid volume < 1e-13                 : 0
    faces with face-decomposition tet quality < 1e-15      : 3
    faces with concavity > 80  degrees                     : 0
    faces with skewness > 4   (internal) or 20  (boundary) : 0
    faces with interpolation weights (0..1)  < 0.02        : 0
    faces with volume ratio of neighbour cells < 0.01      : 0
    faces with face twist < 0.02                           : 0
    faces on cells with determinant < 0.001                : 0

Iteration 1
Moving mesh using displacement scaling : min:0.75  max:1
Checking faces in error :
    non-orthogonality > 65  degrees                        : 0
    faces with face pyramid volume < 1e-13                 : 0
    faces with face-decomposition tet quality < 1e-15      : 1
    faces with concavity > 80  degrees                     : 0
    faces with skewness > 4   (internal) or 20  (boundary) : 0
    faces with interpolation weights (0..1)  < 0.02        : 0
    faces with volume ratio of neighbour cells < 0.01      : 0
    faces with face twist < 0.02                           : 0
    faces on cells with determinant < 0.001                : 0

Iteration 2
Moving mesh using displacement scaling : min:0.5625  max:1
Checking faces in error :
    non-orthogonality > 65  degrees                        : 0
    faces with face pyramid volume < 1e-13                 : 0
    faces with face-decomposition tet quality < 1e-15      : 0
    faces with concavity > 80  degrees                     : 0
    faces with skewness > 4   (internal) or 20  (boundary) : 0
    faces with interpolation weights (0..1)  < 0.02        : 0
    faces with volume ratio of neighbour cells < 0.01      : 0
    faces with face twist < 0.02                           : 0
    faces on cells with determinant < 0.001                : 0
Successfully moved mesh
Moved mesh in = 0.85 s



Morph iteration 3
-----------------
Calculating patchDisplacement as distance to nearest surface point ...
Wanted displacement : average:0.00191542 min:5.62748e-08 max:0.0109724
Calculated surface displacement in = 0.04 s


Detecting near surfaces ...
Overriding nearest with intersection of close gaps at 62 out of 34192 points.
Overriding displacement on features :
   implicit features    : false
   explicit features    : true
   multi-patch features : false

Detected 0 baffle edges out of 67112 edges.
Initially selected 1000 points out of 34192 for reverse attraction.
Selected 3705 points out of 34192 for reverse attraction.
Stringing feature edges : changed 62 points
Stringing feature edges : changed 2 points
Stringing feature edges : changed 0 points
Attraction:
     linear   : max:(0.00719251 0.00387788 -0.00732279) avg:(9.21918e-05 -2.34349e-06 9.78861e-06)
     feature  : max:(0.0192077 0.00333321 -0.00162107) avg:(5.90963e-05 -3.9147e-08 -1.18165e-06)
Feature analysis : total master points:33370 attraction to :
    feature point   : 3
    feature edge    : 293
    nearest surface : 0
    rest            : 33074

--> FOAM Warning : Displacement (-0.0010754 -0.000138262 0.000233616) at mesh point 3898 coord (1.24514 0.124521 4.0011) points through the surrounding patch faces
Smoothing displacement ...
Iteration 0
Iteration 10
Iteration 20
Displacement smoothed in = 0.93 s


Moving mesh ...

Iteration 0
Moving mesh using displacement scaling : min:1  max:1
Checking faces in error :
    non-orthogonality > 65  degrees                        : 0
    faces with face pyramid volume < 1e-13                 : 0
    faces with face-decomposition tet quality < 1e-15      : 3
    faces with concavity > 80  degrees                     : 0
    faces with skewness > 4   (internal) or 20  (boundary) : 0
    faces with interpolation weights (0..1)  < 0.02        : 0
    faces with volume ratio of neighbour cells < 0.01      : 0
    faces with face twist < 0.02                           : 0
    faces on cells with determinant < 0.001                : 0

Iteration 1
Moving mesh using displacement scaling : min:0.75  max:1
Checking faces in error :
    non-orthogonality > 65  degrees                        : 0
    faces with face pyramid volume < 1e-13                 : 0
    faces with face-decomposition tet quality < 1e-15      : 3
    faces with concavity > 80  degrees                     : 0
    faces with skewness > 4   (internal) or 20  (boundary) : 0
    faces with interpolation weights (0..1)  < 0.02        : 0
    faces with volume ratio of neighbour cells < 0.01      : 0
    faces with face twist < 0.02                           : 0
    faces on cells with determinant < 0.001                : 0

Iteration 2
Moving mesh using displacement scaling : min:0.5625  max:1
Checking faces in error :
    non-orthogonality > 65  degrees                        : 0
    faces with face pyramid volume < 1e-13                 : 0
    faces with face-decomposition tet quality < 1e-15      : 3
    faces with concavity > 80  degrees                     : 0
    faces with skewness > 4   (internal) or 20  (boundary) : 0
    faces with interpolation weights (0..1)  < 0.02        : 0
    faces with volume ratio of neighbour cells < 0.01      : 0
    faces with face twist < 0.02                           : 0
    faces on cells with determinant < 0.001                : 0

Iteration 3
Moving mesh using displacement scaling : min:0.421875  max:1
Checking faces in error :
    non-orthogonality > 65  degrees                        : 0
    faces with face pyramid volume < 1e-13                 : 0
    faces with face-decomposition tet quality < 1e-15      : 1
    faces with concavity > 80  degrees                     : 0
    faces with skewness > 4   (internal) or 20  (boundary) : 0
    faces with interpolation weights (0..1)  < 0.02        : 0
    faces with volume ratio of neighbour cells < 0.01      : 0
    faces with face twist < 0.02                           : 0
    faces on cells with determinant < 0.001                : 0

Iteration 4
Moving mesh using displacement scaling : min:0.316406  max:1
Checking faces in error :
    non-orthogonality > 65  degrees                        : 0
    faces with face pyramid volume < 1e-13                 : 0
    faces with face-decomposition tet quality < 1e-15      : 1
    faces with concavity > 80  degrees                     : 0
    faces with skewness > 4   (internal) or 20  (boundary) : 0
    faces with interpolation weights (0..1)  < 0.02        : 0
    faces with volume ratio of neighbour cells < 0.01      : 0
    faces with face twist < 0.02                           : 0
    faces on cells with determinant < 0.001                : 0

Iteration 5
Displacement scaling for error reduction set to 0.
Moving mesh using displacement scaling : min:0.237305  max:1
Checking faces in error :
    non-orthogonality > 65  degrees                        : 0
    faces with face pyramid volume < 1e-13                 : 0
    faces with face-decomposition tet quality < 1e-15      : 1
    faces with concavity > 80  degrees                     : 0
    faces with skewness > 4   (internal) or 20  (boundary) : 0
    faces with interpolation weights (0..1)  < 0.02        : 0
    faces with volume ratio of neighbour cells < 0.01      : 0
    faces with face twist < 0.02                           : 0
    faces on cells with determinant < 0.001                : 0

Iteration 6
Moving mesh using displacement scaling : min:0  max:1
Checking faces in error :
    non-orthogonality > 65  degrees                        : 0
    faces with face pyramid volume < 1e-13                 : 0
    faces with face-decomposition tet quality < 1e-15      : 0
    faces with concavity > 80  degrees                     : 0
    faces with skewness > 4   (internal) or 20  (boundary) : 0
    faces with interpolation weights (0..1)  < 0.02        : 0
    faces with volume ratio of neighbour cells < 0.01      : 0
    faces with face twist < 0.02                           : 0
    faces on cells with determinant < 0.001                : 0
Successfully moved mesh
Moved mesh in = 1.7 s



Morph iteration 4
-----------------
Calculating patchDisplacement as distance to nearest surface point ...
Wanted displacement : average:0.00147122 min:3.43694e-08 max:0.008453
Calculated surface displacement in = 0.04 s


Detecting near surfaces ...
Overriding nearest with intersection of close gaps at 68 out of 34192 points.
Overriding displacement on features :
   implicit features    : false
   explicit features    : true
   multi-patch features : false

Detected 0 baffle edges out of 67112 edges.
Initially selected 991 points out of 34192 for reverse attraction.
Selected 3645 points out of 34192 for reverse attraction.
Stringing feature edges : changed 57 points
Stringing feature edges : changed 1 points
Stringing feature edges : changed 0 points
Attraction:
     linear   : max:(0.00554102 0.00298748 -0.00564139) avg:(4.8363e-05 -1.51422e-06 1.4977e-06)
     feature  : max:(0.000813348 -0.0173267 0.0228496) avg:(4.82218e-05 -1.62707e-07 -2.03791e-07)
Feature analysis : total master points:33370 attraction to :
    feature point   : 3
    feature edge    : 289
    nearest surface : 0
    rest            : 33078

--> FOAM Warning : Displacement (-0.00023039 -0.000373612 0.000773744) at mesh point 2308 coord (1.29344 0.472155 4.11053) points through the surrounding patch faces
Smoothing displacement ...
Iteration 0
Iteration 10
Iteration 20
Displacement smoothed in = 0.92 s


Moving mesh ...

Iteration 0
Moving mesh using displacement scaling : min:1  max:1
Checking faces in error :
    non-orthogonality > 65  degrees                        : 0
    faces with face pyramid volume < 1e-13                 : 0
    faces with face-decomposition tet quality < 1e-15      : 3
    faces with concavity > 80  degrees                     : 0
    faces with skewness > 4   (internal) or 20  (boundary) : 0
    faces with interpolation weights (0..1)  < 0.02        : 0
    faces with volume ratio of neighbour cells < 0.01      : 0
    faces with face twist < 0.02                           : 0
    faces on cells with determinant < 0.001                : 0

Iteration 1
Moving mesh using displacement scaling : min:0.75  max:1
Checking faces in error :
    non-orthogonality > 65  degrees                        : 0
    faces with face pyramid volume < 1e-13                 : 0
    faces with face-decomposition tet quality < 1e-15      : 3
    faces with concavity > 80  degrees                     : 0
    faces with skewness > 4   (internal) or 20  (boundary) : 0
    faces with interpolation weights (0..1)  < 0.02        : 0
    faces with volume ratio of neighbour cells < 0.01      : 0
    faces with face twist < 0.02                           : 0
    faces on cells with determinant < 0.001                : 0

Iteration 2
Moving mesh using displacement scaling : min:0.5625  max:1
Checking faces in error :
    non-orthogonality > 65  degrees                        : 0
    faces with face pyramid volume < 1e-13                 : 0
    faces with face-decomposition tet quality < 1e-15      : 3
    faces with concavity > 80  degrees                     : 0
    faces with skewness > 4   (internal) or 20  (boundary) : 0
    faces with interpolation weights (0..1)  < 0.02        : 0
    faces with volume ratio of neighbour cells < 0.01      : 0
    faces with face twist < 0.02                           : 0
    faces on cells with determinant < 0.001                : 0

Iteration 3
Moving mesh using displacement scaling : min:0.421875  max:1
Checking faces in error :
    non-orthogonality > 65  degrees                        : 0
    faces with face pyramid volume < 1e-13                 : 0
    faces with face-decomposition tet quality < 1e-15      : 3
    faces with concavity > 80  degrees                     : 0
    faces with skewness > 4   (internal) or 20  (boundary) : 0
    faces with interpolation weights (0..1)  < 0.02        : 0
    faces with volume ratio of neighbour cells < 0.01      : 0
    faces with face twist < 0.02                           : 0
    faces on cells with determinant < 0.001                : 0

Iteration 4
Moving mesh using displacement scaling : min:0.316406  max:1
Checking faces in error :
    non-orthogonality > 65  degrees                        : 0
    faces with face pyramid volume < 1e-13                 : 0
    faces with face-decomposition tet quality < 1e-15      : 3
    faces with concavity > 80  degrees                     : 0
    faces with skewness > 4   (internal) or 20  (boundary) : 0
    faces with interpolation weights (0..1)  < 0.02        : 0
    faces with volume ratio of neighbour cells < 0.01      : 0
    faces with face twist < 0.02                           : 0
    faces on cells with determinant < 0.001                : 0

Iteration 5
Displacement scaling for error reduction set to 0.
Moving mesh using displacement scaling : min:0.237305  max:1
Checking faces in error :
    non-orthogonality > 65  degrees                        : 0
    faces with face pyramid volume < 1e-13                 : 0
    faces with face-decomposition tet quality < 1e-15      : 1
    faces with concavity > 80  degrees                     : 0
    faces with skewness > 4   (internal) or 20  (boundary) : 0
    faces with interpolation weights (0..1)  < 0.02        : 0
    faces with volume ratio of neighbour cells < 0.01      : 0
    faces with face twist < 0.02                           : 0
    faces on cells with determinant < 0.001                : 0

Iteration 6
Moving mesh using displacement scaling : min:0  max:1
Checking faces in error :
    non-orthogonality > 65  degrees                        : 0
    faces with face pyramid volume < 1e-13                 : 0
    faces with face-decomposition tet quality < 1e-15      : 0
    faces with concavity > 80  degrees                     : 0
    faces with skewness > 4   (internal) or 20  (boundary) : 0
    faces with interpolation weights (0..1)  < 0.02        : 0
    faces with volume ratio of neighbour cells < 0.01      : 0
    faces with face twist < 0.02                           : 0
    faces on cells with determinant < 0.001                : 0
Successfully moved mesh
Moved mesh in = 1.67 s



Morph iteration 5
-----------------
Calculating patchDisplacement as distance to nearest surface point ...
Wanted displacement : average:0.00103953 min:1.09667e-07 max:0.0066373
Calculated surface displacement in = 0.04 s


Detecting near surfaces ...
Overriding nearest with intersection of close gaps at 90 out of 34192 points.
Overriding displacement on features :
   implicit features    : false
   explicit features    : true
   multi-patch features : false

Detected 0 baffle edges out of 67112 edges.
Initially selected 973 points out of 34192 for reverse attraction.
Selected 3569 points out of 34192 for reverse attraction.
Stringing feature edges : changed 57 points
Stringing feature edges : changed 1 points
Stringing feature edges : changed 0 points
Attraction:
     linear   : max:(-0.0066015 -0.000136112 0.00067479) avg:(1.51022e-05 -8.38758e-07 -5.64939e-06)
     feature  : max:(0.000995852 -0.0172032 0.0224786) avg:(3.38973e-05 1.20613e-07 -1.71138e-07)
Feature analysis : total master points:33370 attraction to :
    feature point   : 3
    feature edge    : 281
    nearest surface : 0
    rest            : 33086

--> FOAM Warning : Displacement (-0.000494911 -0.000291867 0.000929316) at mesh point 2308 coord (1.29321 0.471782 4.1113) points through the surrounding patch faces
Smoothing displacement ...
Iteration 0
Iteration 10
Iteration 20
Displacement smoothed in = 0.9 s


Moving mesh ...

Iteration 0
Moving mesh using displacement scaling : min:1  max:1
Checking faces in error :
    non-orthogonality > 65  degrees                        : 0
    faces with face pyramid volume < 1e-13                 : 0
    faces with face-decomposition tet quality < 1e-15      : 3
    faces with concavity > 80  degrees                     : 0
    faces with skewness > 4   (internal) or 20  (boundary) : 0
    faces with interpolation weights (0..1)  < 0.02        : 0
    faces with volume ratio of neighbour cells < 0.01      : 0
    faces with face twist < 0.02                           : 0
    faces on cells with determinant < 0.001                : 0

Iteration 1
Moving mesh using displacement scaling : min:0.75  max:1
Checking faces in error :
    non-orthogonality > 65  degrees                        : 0
    faces with face pyramid volume < 1e-13                 : 0
    faces with face-decomposition tet quality < 1e-15      : 3
    faces with concavity > 80  degrees                     : 0
    faces with skewness > 4   (internal) or 20  (boundary) : 0
    faces with interpolation weights (0..1)  < 0.02        : 0
    faces with volume ratio of neighbour cells < 0.01      : 0
    faces with face twist < 0.02                           : 0
    faces on cells with determinant < 0.001                : 0

Iteration 2
Moving mesh using displacement scaling : min:0.5625  max:1
Checking faces in error :
    non-orthogonality > 65  degrees                        : 0
    faces with face pyramid volume < 1e-13                 : 0
    faces with face-decomposition tet quality < 1e-15      : 3
    faces with concavity > 80  degrees                     : 0
    faces with skewness > 4   (internal) or 20  (boundary) : 0
    faces with interpolation weights (0..1)  < 0.02        : 0
    faces with volume ratio of neighbour cells < 0.01      : 0
    faces with face twist < 0.02                           : 0
    faces on cells with determinant < 0.001                : 0

Iteration 3
Moving mesh using displacement scaling : min:0.421875  max:1
Checking faces in error :
    non-orthogonality > 65  degrees                        : 0
    faces with face pyramid volume < 1e-13                 : 0
    faces with face-decomposition tet quality < 1e-15      : 3
    faces with concavity > 80  degrees                     : 0
    faces with skewness > 4   (internal) or 20  (boundary) : 0
    faces with interpolation weights (0..1)  < 0.02        : 0
    faces with volume ratio of neighbour cells < 0.01      : 0
    faces with face twist < 0.02                           : 0
    faces on cells with determinant < 0.001                : 0

Iteration 4
Moving mesh using displacement scaling : min:0.316406  max:1
Checking faces in error :
    non-orthogonality > 65  degrees                        : 0
    faces with face pyramid volume < 1e-13                 : 0
    faces with face-decomposition tet quality < 1e-15      : 3
    faces with concavity > 80  degrees                     : 0
    faces with skewness > 4   (internal) or 20  (boundary) : 0
    faces with interpolation weights (0..1)  < 0.02        : 0
    faces with volume ratio of neighbour cells < 0.01      : 0
    faces with face twist < 0.02                           : 0
    faces on cells with determinant < 0.001                : 0

Iteration 5
Displacement scaling for error reduction set to 0.
Moving mesh using displacement scaling : min:0.237305  max:1
Checking faces in error :
    non-orthogonality > 65  degrees                        : 0
    faces with face pyramid volume < 1e-13                 : 0
    faces with face-decomposition tet quality < 1e-15      : 3
    faces with concavity > 80  degrees                     : 0
    faces with skewness > 4   (internal) or 20  (boundary) : 0
    faces with interpolation weights (0..1)  < 0.02        : 0
    faces with volume ratio of neighbour cells < 0.01      : 0
    faces with face twist < 0.02                           : 0
    faces on cells with determinant < 0.001                : 0

Iteration 6
Moving mesh using displacement scaling : min:0  max:1
Checking faces in error :
    non-orthogonality > 65  degrees                        : 0
    faces with face pyramid volume < 1e-13                 : 0
    faces with face-decomposition tet quality < 1e-15      : 0
    faces with concavity > 80  degrees                     : 0
    faces with skewness > 4   (internal) or 20  (boundary) : 0
    faces with interpolation weights (0..1)  < 0.02        : 0
    faces with volume ratio of neighbour cells < 0.01      : 0
    faces with face twist < 0.02                           : 0
    faces on cells with determinant < 0.001                : 0
Successfully moved mesh
Moved mesh in = 1.7 s



Morph iteration 6
-----------------
Calculating patchDisplacement as distance to nearest surface point ...
Wanted displacement : average:0.000646516 min:2.10479e-09 max:0.0066373
Calculated surface displacement in = 0.04 s


Detecting near surfaces ...
Overriding nearest with intersection of close gaps at 84 out of 34192 points.
Overriding displacement on features :
   implicit features    : false
   explicit features    : true
   multi-patch features : false

Detected 0 baffle edges out of 67112 edges.
Initially selected 976 points out of 34192 for reverse attraction.
Selected 3583 points out of 34192 for reverse attraction.
Stringing feature edges : changed 55 points
Stringing feature edges : changed 1 points
Stringing feature edges : changed 0 points
Attraction:
     linear   : max:(-0.00681752 -0.000376628 -0.00269459) avg:(-1.28383e-06 -4.44317e-07 -7.04582e-06)
     feature  : max:(0.00158846 -0.0171657 0.0221775) avg:(2.38186e-05 2.41092e-08 1.58927e-06)
Feature analysis : total master points:33370 attraction to :
    feature point   : 3
    feature edge    : 283
    nearest surface : 0
    rest            : 33084

--> FOAM Warning : Displacement (0.00105244 -0.000228592 0.00198986) at mesh point 6373 coord (1.24157 0.311774 4.39038) points through the surrounding patch faces
Smoothing displacement ...
Iteration 0
Iteration 10
Iteration 20
Displacement smoothed in = 0.91 s


Moving mesh ...

Iteration 0
Moving mesh using displacement scaling : min:1  max:1
Checking faces in error :
    non-orthogonality > 65  degrees                        : 0
    faces with face pyramid volume < 1e-13                 : 2
    faces with face-decomposition tet quality < 1e-15      : 18
    faces with concavity > 80  degrees                     : 0
    faces with skewness > 4   (internal) or 20  (boundary) : 0
    faces with interpolation weights (0..1)  < 0.02        : 0
    faces with volume ratio of neighbour cells < 0.01      : 0
    faces with face twist < 0.02                           : 0
    faces on cells with determinant < 0.001                : 0

Iteration 1
Moving mesh using displacement scaling : min:0.75  max:1
Checking faces in error :
    non-orthogonality > 65  degrees                        : 0
    faces with face pyramid volume < 1e-13                 : 0
    faces with face-decomposition tet quality < 1e-15      : 14
    faces with concavity > 80  degrees                     : 0
    faces with skewness > 4   (internal) or 20  (boundary) : 0
    faces with interpolation weights (0..1)  < 0.02        : 0
    faces with volume ratio of neighbour cells < 0.01      : 0
    faces with face twist < 0.02                           : 0
    faces on cells with determinant < 0.001                : 0

Iteration 2
Moving mesh using displacement scaling : min:0.5625  max:1
Checking faces in error :
    non-orthogonality > 65  degrees                        : 0
    faces with face pyramid volume < 1e-13                 : 0
    faces with face-decomposition tet quality < 1e-15      : 14
    faces with concavity > 80  degrees                     : 0
    faces with skewness > 4   (internal) or 20  (boundary) : 0
    faces with interpolation weights (0..1)  < 0.02        : 0
    faces with volume ratio of neighbour cells < 0.01      : 0
    faces with face twist < 0.02                           : 0
    faces on cells with determinant < 0.001                : 0

Iteration 3
Moving mesh using displacement scaling : min:0.421875  max:1
Checking faces in error :
    non-orthogonality > 65  degrees                        : 0
    faces with face pyramid volume < 1e-13                 : 0
    faces with face-decomposition tet quality < 1e-15      : 10
    faces with concavity > 80  degrees                     : 0
    faces with skewness > 4   (internal) or 20  (boundary) : 0
    faces with interpolation weights (0..1)  < 0.02        : 0
    faces with volume ratio of neighbour cells < 0.01      : 0
    faces with face twist < 0.02                           : 0
    faces on cells with determinant < 0.001                : 0

Iteration 4
Moving mesh using displacement scaling : min:0.316406  max:1
Checking faces in error :
    non-orthogonality > 65  degrees                        : 0
    faces with face pyramid volume < 1e-13                 : 0
    faces with face-decomposition tet quality < 1e-15      : 9
    faces with concavity > 80  degrees                     : 0
    faces with skewness > 4   (internal) or 20  (boundary) : 0
    faces with interpolation weights (0..1)  < 0.02        : 0
    faces with volume ratio of neighbour cells < 0.01      : 0
    faces with face twist < 0.02                           : 0
    faces on cells with determinant < 0.001                : 0

Iteration 5
Displacement scaling for error reduction set to 0.
Moving mesh using displacement scaling : min:0.237305  max:1
Checking faces in error :
    non-orthogonality > 65  degrees                        : 0
    faces with face pyramid volume < 1e-13                 : 0
    faces with face-decomposition tet quality < 1e-15      : 9
    faces with concavity > 80  degrees                     : 0
    faces with skewness > 4   (internal) or 20  (boundary) : 0
    faces with interpolation weights (0..1)  < 0.02        : 0
    faces with volume ratio of neighbour cells < 0.01      : 0
    faces with face twist < 0.02                           : 0
    faces on cells with determinant < 0.001                : 0

Iteration 6
Moving mesh using displacement scaling : min:0  max:1
Checking faces in error :
    non-orthogonality > 65  degrees                        : 0
    faces with face pyramid volume < 1e-13                 : 0
    faces with face-decomposition tet quality < 1e-15      : 0
    faces with concavity > 80  degrees                     : 0
    faces with skewness > 4   (internal) or 20  (boundary) : 0
    faces with interpolation weights (0..1)  < 0.02        : 0
    faces with volume ratio of neighbour cells < 0.01      : 0
    faces with face twist < 0.02                           : 0
    faces on cells with determinant < 0.001                : 0
Successfully moved mesh
Moved mesh in = 1.79 s



Morph iteration 7
-----------------
Calculating patchDisplacement as distance to nearest surface point ...
Wanted displacement : average:0.000332142 min:1.24397e-10 max:0.0066373
Calculated surface displacement in = 0.03 s


Detecting near surfaces ...
Overriding nearest with intersection of close gaps at 102 out of 34192 points.
Overriding displacement on features :
   implicit features    : false
   explicit features    : true
   multi-patch features : false

Detected 10 baffle edges out of 67112 edges.
Initially selected 995 points out of 34192 for reverse attraction.
Selected 3612 points out of 34192 for reverse attraction.
Stringing feature edges : changed 48 points
Stringing feature edges : changed 4 points
Stringing feature edges : changed 0 points
Attraction:
     linear   : max:(-0.011248 0.00164254 -0.00267641) avg:(-1.01749e-05 -2.06467e-07 -7.82478e-06)
     feature  : max:(0.00238213 0.0170503 0.022015) avg:(1.53765e-05 4.92337e-07 3.05829e-06)
Feature analysis : total master points:33370 attraction to :
    feature point   : 4
    feature edge    : 298
    nearest surface : 0
    rest            : 33068

--> FOAM Warning : Displacement (0.000688975 -0.000148342 0.00230608) at mesh point 6373 coord (1.24263 0.311545 4.39237) points through the surrounding patch faces
Smoothing displacement ...
Iteration 0
Iteration 10
Iteration 20
Displacement smoothed in = 0.92 s


Moving mesh ...

Iteration 0
Moving mesh using displacement scaling : min:1  max:1
Checking faces in error :
    non-orthogonality > 65  degrees                        : 2
    faces with face pyramid volume < 1e-13                 : 3
    faces with face-decomposition tet quality < 1e-15      : 37
    faces with concavity > 80  degrees                     : 0
    faces with skewness > 4   (internal) or 20  (boundary) : 0
    faces with interpolation weights (0..1)  < 0.02        : 0
    faces with volume ratio of neighbour cells < 0.01      : 0
    faces with face twist < 0.02                           : 3
    faces on cells with determinant < 0.001                : 0

Iteration 1
Moving mesh using displacement scaling : min:0.75  max:1
Checking faces in error :
    non-orthogonality > 65  degrees                        : 0
    faces with face pyramid volume < 1e-13                 : 2
    faces with face-decomposition tet quality < 1e-15      : 27
    faces with concavity > 80  degrees                     : 0
    faces with skewness > 4   (internal) or 20  (boundary) : 0
    faces with interpolation weights (0..1)  < 0.02        : 0
    faces with volume ratio of neighbour cells < 0.01      : 0
    faces with face twist < 0.02                           : 2
    faces on cells with determinant < 0.001                : 0

Iteration 2
Moving mesh using displacement scaling : min:0.5625  max:1
Checking faces in error :
    non-orthogonality > 65  degrees                        : 0
    faces with face pyramid volume < 1e-13                 : 2
    faces with face-decomposition tet quality < 1e-15      : 25
    faces with concavity > 80  degrees                     : 0
    faces with skewness > 4   (internal) or 20  (boundary) : 0
    faces with interpolation weights (0..1)  < 0.02        : 0
    faces with volume ratio of neighbour cells < 0.01      : 0
    faces with face twist < 0.02                           : 2
    faces on cells with determinant < 0.001                : 0

Iteration 3
Moving mesh using displacement scaling : min:0.421875  max:1
Checking faces in error :
    non-orthogonality > 65  degrees                        : 0
    faces with face pyramid volume < 1e-13                 : 0
    faces with face-decomposition tet quality < 1e-15      : 19
    faces with concavity > 80  degrees                     : 0
    faces with skewness > 4   (internal) or 20  (boundary) : 0
    faces with interpolation weights (0..1)  < 0.02        : 0
    faces with volume ratio of neighbour cells < 0.01      : 0
    faces with face twist < 0.02                           : 2
    faces on cells with determinant < 0.001                : 0

Iteration 4
Moving mesh using displacement scaling : min:0.316406  max:1
Checking faces in error :
    non-orthogonality > 65  degrees                        : 0
    faces with face pyramid volume < 1e-13                 : 0
    faces with face-decomposition tet quality < 1e-15      : 13
    faces with concavity > 80  degrees                     : 0
    faces with skewness > 4   (internal) or 20  (boundary) : 0
    faces with interpolation weights (0..1)  < 0.02        : 0
    faces with volume ratio of neighbour cells < 0.01      : 0
    faces with face twist < 0.02                           : 2
    faces on cells with determinant < 0.001                : 0

Iteration 5
Displacement scaling for error reduction set to 0.
Moving mesh using displacement scaling : min:0.237305  max:1
Checking faces in error :
    non-orthogonality > 65  degrees                        : 0
    faces with face pyramid volume < 1e-13                 : 0
    faces with face-decomposition tet quality < 1e-15      : 12
    faces with concavity > 80  degrees                     : 0
    faces with skewness > 4   (internal) or 20  (boundary) : 0
    faces with interpolation weights (0..1)  < 0.02        : 0
    faces with volume ratio of neighbour cells < 0.01      : 0
    faces with face twist < 0.02                           : 0
    faces on cells with determinant < 0.001                : 0

Iteration 6
Moving mesh using displacement scaling : min:0  max:1
Checking faces in error :
    non-orthogonality > 65  degrees                        : 0
    faces with face pyramid volume < 1e-13                 : 0
    faces with face-decomposition tet quality < 1e-15      : 0
    faces with concavity > 80  degrees                     : 0
    faces with skewness > 4   (internal) or 20  (boundary) : 0
    faces with interpolation weights (0..1)  < 0.02        : 0
    faces with volume ratio of neighbour cells < 0.01      : 0
    faces with face twist < 0.02                           : 0
    faces on cells with determinant < 0.001                : 0
Successfully moved mesh
Moved mesh in = 1.87 s



Morph iteration 8
-----------------
Calculating patchDisplacement as distance to nearest surface point ...
Wanted displacement : average:0.000132538 min:3.47006e-09 max:0.00719641
Calculated surface displacement in = 0.04 s


Detecting near surfaces ...
Overriding nearest with intersection of close gaps at 105 out of 34192 points.
Overriding displacement on features :
   implicit features    : false
   explicit features    : true
   multi-patch features : false

Detected 58 baffle edges out of 67112 edges.
Initially selected 1009 points out of 34192 for reverse attraction.
Selected 3593 points out of 34192 for reverse attraction.
Stringing feature edges : changed 40 points
Stringing feature edges : changed 5 points
Stringing feature edges : changed 0 points
Attraction:
     linear   : max:(-0.0114255 0.00150045 -0.00314044) avg:(-1.23059e-05 -3.32254e-09 -7.88007e-06)
     feature  : max:(0.00307486 -0.0169237 0.0215001) avg:(8.03516e-06 3.05853e-07 2.07576e-06)
Feature analysis : total master points:33370 attraction to :
    feature point   : 4
    feature edge    : 299
    nearest surface : 0
    rest            : 33067

--> FOAM Warning : Displacement (0.000220389 1.23064e-05 0.00237306) at mesh point 6373 coord (1.24331 0.311397 4.39467) points through the surrounding patch faces
Smoothing displacement ...
Iteration 0
Iteration 10
Iteration 20
Displacement smoothed in = 0.92 s


Moving mesh ...

Iteration 0
Moving mesh using displacement scaling : min:1  max:1
Checking faces in error :
    non-orthogonality > 65  degrees                        : 3
    faces with face pyramid volume < 1e-13                 : 5
    faces with face-decomposition tet quality < 1e-15      : 59
    faces with concavity > 80  degrees                     : 2
    faces with skewness > 4   (internal) or 20  (boundary) : 0
    faces with interpolation weights (0..1)  < 0.02        : 0
    faces with volume ratio of neighbour cells < 0.01      : 0
    faces with face twist < 0.02                           : 4
    faces on cells with determinant < 0.001                : 0

Iteration 1
Moving mesh using displacement scaling : min:0.75  max:1
Checking faces in error :
    non-orthogonality > 65  degrees                        : 1
    faces with face pyramid volume < 1e-13                 : 1
    faces with face-decomposition tet quality < 1e-15      : 48
    faces with concavity > 80  degrees                     : 2
    faces with skewness > 4   (internal) or 20  (boundary) : 0
    faces with interpolation weights (0..1)  < 0.02        : 0
    faces with volume ratio of neighbour cells < 0.01      : 0
    faces with face twist < 0.02                           : 8
    faces on cells with determinant < 0.001                : 0

Iteration 2
Moving mesh using displacement scaling : min:0.5625  max:1
Checking faces in error :
    non-orthogonality > 65  degrees                        : 0
    faces with face pyramid volume < 1e-13                 : 0
    faces with face-decomposition tet quality < 1e-15      : 35
    faces with concavity > 80  degrees                     : 2
[...]
    faces with face-decomposition tet quality < 1e-15      : 2
    faces with concavity > 80  degrees                     : 0
    faces with skewness > 4   (internal) or 20  (boundary) : 0
    faces with interpolation weights (0..1)  < 0.02        : 0
    faces with volume ratio of neighbour cells < 0.01      : 0
    faces with face twist < 0.02                           : 0
    faces on cells with determinant < 0.001                : 0
displacementMedialAxis : Iteration 1
Moving mesh using displacement scaling : min:0.75  max:1
Checking faces in error :
    non-orthogonality > 65  degrees                        : 0
    faces with face pyramid volume < 1e-13                 : 0
    faces with face-decomposition tet quality < 1e-15      : 0
    faces with concavity > 80  degrees                     : 0
    faces with skewness > 4   (internal) or 20  (boundary) : 0
    faces with interpolation weights (0..1)  < 0.02        : 0
    faces with volume ratio of neighbour cells < 0.01      : 0
    faces with face twist < 0.02                           : 0
    faces on cells with determinant < 0.001                : 0
displacementMedialAxis : Successfully moved mesh
displacementMedialAxis : Finished moving mesh ...
truncateDisplacement : Unextruded 0 faces due to non-consecutive vertices being extruded.
truncateDisplacement : Unextruded 0 faces due to stringed edges with inconsistent extrusion.

Setting up information for layer truncation ...

Checking mesh with layer ...
Checking faces in error :
    non-orthogonality > 65  degrees                        : 2
    faces with face pyramid volume < 1e-13                 : 0
    faces with face-decomposition tet quality < 1e-15      : 18
    faces with concavity > 80  degrees                     : 0
    faces with skewness > 4   (internal) or 20  (boundary) : 0
    faces with interpolation weights (0..1)  < 0.02        : 0
    faces with volume ratio of neighbour cells < 0.01      : 0
    faces with face twist < 0.02                           : 0
    faces on cells with determinant < 0.001                : 0
Detected 20 illegal faces (concave, zero area or negative cell pyramid volume)
Extruding 23017 out of 23935 faces (96.1646%). Removed extrusion at 20 faces.
Added 23037 out of 23935 cells (96.2482%).


Layer addition iteration 5
--------------------------

Determining displacement for added points according to pointNormal ...
Detected 0 points with point normal pointing through faces.
Reset displacement at 0 points to average of surrounding points.

displacementMedialAxis : Smoothing using Medial Axis ...
displacementMedialAxis : Reducing layer thickness at 2 nodes where thickness to medial axis distance is large 
displacementMedialAxis : Removing isolated regions ...
displacementMedialAxis : Number of isolated points extrusion stopped : 0
displacementMedialAxis : Smoothing field ...
    Iteration 0   residual 7.68619e-05
displacementMedialAxis : Moving mesh ...
displacementMedialAxis : Iteration 0
Moving mesh using displacement scaling : min:1  max:1
Checking faces in error :
    non-orthogonality > 65  degrees                        : 0
    faces with face pyramid volume < 1e-13                 : 0
    faces with face-decomposition tet quality < 1e-15      : 2
    faces with concavity > 80  degrees                     : 0
    faces with skewness > 4   (internal) or 20  (boundary) : 0
    faces with interpolation weights (0..1)  < 0.02        : 0
    faces with volume ratio of neighbour cells < 0.01      : 0
    faces with face twist < 0.02                           : 0
    faces on cells with determinant < 0.001                : 0
displacementMedialAxis : Iteration 1
Moving mesh using displacement scaling : min:0.75  max:1
Checking faces in error :
    non-orthogonality > 65  degrees                        : 0
    faces with face pyramid volume < 1e-13                 : 0
    faces with face-decomposition tet quality < 1e-15      : 0
    faces with concavity > 80  degrees                     : 0
    faces with skewness > 4   (internal) or 20  (boundary) : 0
    faces with interpolation weights (0..1)  < 0.02        : 0
    faces with volume ratio of neighbour cells < 0.01      : 0
    faces with face twist < 0.02                           : 0
    faces on cells with determinant < 0.001                : 0
displacementMedialAxis : Successfully moved mesh
displacementMedialAxis : Finished moving mesh ...
truncateDisplacement : Unextruded 0 faces due to non-consecutive vertices being extruded.
truncateDisplacement : Unextruded 0 faces due to stringed edges with inconsistent extrusion.

Setting up information for layer truncation ...

Checking mesh with layer ...
Checking faces in error :
    non-orthogonality > 65  degrees                        : 0
    faces with face pyramid volume < 1e-13                 : 0
    faces with face-decomposition tet quality < 1e-15      : 10
    faces with concavity > 80  degrees                     : 0
    faces with skewness > 4   (internal) or 20  (boundary) : 0
    faces with interpolation weights (0..1)  < 0.02        : 0
    faces with volume ratio of neighbour cells < 0.01      : 0
    faces with face twist < 0.02                           : 2
    faces on cells with determinant < 0.001                : 0
Detected 12 illegal faces (concave, zero area or negative cell pyramid volume)
Extruding 23005 out of 23935 faces (96.1145%). Removed extrusion at 12 faces.
Added 23017 out of 23935 cells (96.1646%).


Layer addition iteration 6
--------------------------

Determining displacement for added points according to pointNormal ...
Detected 0 points with point normal pointing through faces.
Reset displacement at 0 points to average of surrounding points.

displacementMedialAxis : Smoothing using Medial Axis ...
displacementMedialAxis : Reducing layer thickness at 2 nodes where thickness to medial axis distance is large 
displacementMedialAxis : Removing isolated regions ...
displacementMedialAxis : Number of isolated points extrusion stopped : 2
displacementMedialAxis : Smoothing field ...
    Iteration 0   residual 7.68128e-05
displacementMedialAxis : Moving mesh ...
displacementMedialAxis : Iteration 0
Moving mesh using displacement scaling : min:1  max:1
Checking faces in error :
    non-orthogonality > 65  degrees                        : 0
    faces with face pyramid volume < 1e-13                 : 0
    faces with face-decomposition tet quality < 1e-15      : 2
    faces with concavity > 80  degrees                     : 0
    faces with skewness > 4   (internal) or 20  (boundary) : 0
    faces with interpolation weights (0..1)  < 0.02        : 0
    faces with volume ratio of neighbour cells < 0.01      : 0
    faces with face twist < 0.02                           : 0
    faces on cells with determinant < 0.001                : 0
displacementMedialAxis : Iteration 1
Moving mesh using displacement scaling : min:0.75  max:1
Checking faces in error :
    non-orthogonality > 65  degrees                        : 0
    faces with face pyramid volume < 1e-13                 : 0
    faces with face-decomposition tet quality < 1e-15      : 0
    faces with concavity > 80  degrees                     : 0
    faces with skewness > 4   (internal) or 20  (boundary) : 0
    faces with interpolation weights (0..1)  < 0.02        : 0
    faces with volume ratio of neighbour cells < 0.01      : 0
    faces with face twist < 0.02                           : 0
    faces on cells with determinant < 0.001                : 0
displacementMedialAxis : Successfully moved mesh
displacementMedialAxis : Finished moving mesh ...
truncateDisplacement : Unextruded 0 faces due to non-consecutive vertices being extruded.
truncateDisplacement : Unextruded 0 faces due to stringed edges with inconsistent extrusion.

Setting up information for layer truncation ...

Checking mesh with layer ...
Checking faces in error :
    non-orthogonality > 65  degrees                        : 0
    faces with face pyramid volume < 1e-13                 : 0
    faces with face-decomposition tet quality < 1e-15      : 8
    faces with concavity > 80  degrees                     : 0
    faces with skewness > 4   (internal) or 20  (boundary) : 0
    faces with interpolation weights (0..1)  < 0.02        : 0
    faces with volume ratio of neighbour cells < 0.01      : 0
    faces with face twist < 0.02                           : 0
    faces on cells with determinant < 0.001                : 0
Detected 8 illegal faces (concave, zero area or negative cell pyramid volume)
Extruding 22993 out of 23935 faces (96.0643%). Removed extrusion at 8 faces.
Added 23001 out of 23935 cells (96.0978%).


Layer addition iteration 7
--------------------------

Determining displacement for added points according to pointNormal ...
Detected 0 points with point normal pointing through faces.
Reset displacement at 0 points to average of surrounding points.

displacementMedialAxis : Smoothing using Medial Axis ...
displacementMedialAxis : Reducing layer thickness at 2 nodes where thickness to medial axis distance is large 
displacementMedialAxis : Removing isolated regions ...
displacementMedialAxis : Number of isolated points extrusion stopped : 8
displacementMedialAxis : Smoothing field ...
    Iteration 0   residual 7.69633e-05
displacementMedialAxis : Moving mesh ...
displacementMedialAxis : Iteration 0
Moving mesh using displacement scaling : min:1  max:1
Checking faces in error :
    non-orthogonality > 65  degrees                        : 0
    faces with face pyramid volume < 1e-13                 : 0
    faces with face-decomposition tet quality < 1e-15      : 2
    faces with concavity > 80  degrees                     : 0
    faces with skewness > 4   (internal) or 20  (boundary) : 0
    faces with interpolation weights (0..1)  < 0.02        : 0
    faces with volume ratio of neighbour cells < 0.01      : 0
    faces with face twist < 0.02                           : 0
    faces on cells with determinant < 0.001                : 0
displacementMedialAxis : Iteration 1
Moving mesh using displacement scaling : min:0.75  max:1
Checking faces in error :
    non-orthogonality > 65  degrees                        : 0
    faces with face pyramid volume < 1e-13                 : 0
    faces with face-decomposition tet quality < 1e-15      : 0
    faces with concavity > 80  degrees                     : 0
    faces with skewness > 4   (internal) or 20  (boundary) : 0
    faces with interpolation weights (0..1)  < 0.02        : 0
    faces with volume ratio of neighbour cells < 0.01      : 0
    faces with face twist < 0.02                           : 0
    faces on cells with determinant < 0.001                : 0
displacementMedialAxis : Successfully moved mesh
displacementMedialAxis : Finished moving mesh ...
truncateDisplacement : Unextruded 0 faces due to non-consecutive vertices being extruded.
truncateDisplacement : Unextruded 0 faces due to stringed edges with inconsistent extrusion.

Setting up information for layer truncation ...

Checking mesh with layer ...
Checking faces in error :
    non-orthogonality > 65  degrees                        : 0
    faces with face pyramid volume < 1e-13                 : 0
    faces with face-decomposition tet quality < 1e-15      : 6
    faces with concavity > 80  degrees                     : 0
    faces with skewness > 4   (internal) or 20  (boundary) : 0
    faces with interpolation weights (0..1)  < 0.02        : 0
    faces with volume ratio of neighbour cells < 0.01      : 0
    faces with face twist < 0.02                           : 0
    faces on cells with determinant < 0.001                : 0
Detected 6 illegal faces (concave, zero area or negative cell pyramid volume)
Extruding 22987 out of 23935 faces (96.0393%). Removed extrusion at 4 faces.
Added 22991 out of 23935 cells (96.056%).


Layer addition iteration 8
--------------------------

Determining displacement for added points according to pointNormal ...
Detected 0 points with point normal pointing through faces.
Reset displacement at 0 points to average of surrounding points.

displacementMedialAxis : Smoothing using Medial Axis ...
displacementMedialAxis : Reducing layer thickness at 2 nodes where thickness to medial axis distance is large 
displacementMedialAxis : Removing isolated regions ...
displacementMedialAxis : Number of isolated points extrusion stopped : 4
displacementMedialAxis : Smoothing field ...
    Iteration 0   residual 7.69512e-05
displacementMedialAxis : Moving mesh ...
displacementMedialAxis : Iteration 0
Moving mesh using displacement scaling : min:1  max:1
Checking faces in error :
    non-orthogonality > 65  degrees                        : 0
    faces with face pyramid volume < 1e-13                 : 0
    faces with face-decomposition tet quality < 1e-15      : 2
    faces with concavity > 80  degrees                     : 0
    faces with skewness > 4   (internal) or 20  (boundary) : 0
    faces with interpolation weights (0..1)  < 0.02        : 0
    faces with volume ratio of neighbour cells < 0.01      : 0
    faces with face twist < 0.02                           : 0
    faces on cells with determinant < 0.001                : 0
displacementMedialAxis : Iteration 1
Moving mesh using displacement scaling : min:0.75  max:1
Checking faces in error :
    non-orthogonality > 65  degrees                        : 0
    faces with face pyramid volume < 1e-13                 : 0
    faces with face-decomposition tet quality < 1e-15      : 0
    faces with concavity > 80  degrees                     : 0
    faces with skewness > 4   (internal) or 20  (boundary) : 0
    faces with interpolation weights (0..1)  < 0.02        : 0
    faces with volume ratio of neighbour cells < 0.01      : 0
    faces with face twist < 0.02                           : 0
    faces on cells with determinant < 0.001                : 0
displacementMedialAxis : Successfully moved mesh
displacementMedialAxis : Finished moving mesh ...
truncateDisplacement : Unextruded 0 faces due to non-consecutive vertices being extruded.
truncateDisplacement : Unextruded 0 faces due to stringed edges with inconsistent extrusion.

Setting up information for layer truncation ...

Checking mesh with layer ...
Checking faces in error :
    non-orthogonality > 65  degrees                        : 0
    faces with face pyramid volume < 1e-13                 : 0
    faces with face-decomposition tet quality < 1e-15      : 2
    faces with concavity > 80  degrees                     : 0
    faces with skewness > 4   (internal) or 20  (boundary) : 0
    faces with interpolation weights (0..1)  < 0.02        : 0
    faces with volume ratio of neighbour cells < 0.01      : 0
    faces with face twist < 0.02                           : 0
    faces on cells with determinant < 0.001                : 0
Detected 2 illegal faces (concave, zero area or negative cell pyramid volume)
Extruding 22981 out of 23935 faces (96.0142%). Removed extrusion at 2 faces.
Added 22983 out of 23935 cells (96.0226%).


Layer addition iteration 9
--------------------------

Determining displacement for added points according to pointNormal ...
Detected 0 points with point normal pointing through faces.
Reset displacement at 0 points to average of surrounding points.

displacementMedialAxis : Smoothing using Medial Axis ...
displacementMedialAxis : Reducing layer thickness at 2 nodes where thickness to medial axis distance is large 
displacementMedialAxis : Removing isolated regions ...
displacementMedialAxis : Number of isolated points extrusion stopped : 2
displacementMedialAxis : Smoothing field ...
    Iteration 0   residual 7.6969e-05
displacementMedialAxis : Moving mesh ...
displacementMedialAxis : Iteration 0
Moving mesh using displacement scaling : min:1  max:1
Checking faces in error :
    non-orthogonality > 65  degrees                        : 0
    faces with face pyramid volume < 1e-13                 : 0
    faces with face-decomposition tet quality < 1e-15      : 2
    faces with concavity > 80  degrees                     : 0
    faces with skewness > 4   (internal) or 20  (boundary) : 0
    faces with interpolation weights (0..1)  < 0.02        : 0
    faces with volume ratio of neighbour cells < 0.01      : 0
    faces with face twist < 0.02                           : 0
    faces on cells with determinant < 0.001                : 0
displacementMedialAxis : Iteration 1
Moving mesh using displacement scaling : min:0.75  max:1
Checking faces in error :
    non-orthogonality > 65  degrees                        : 0
    faces with face pyramid volume < 1e-13                 : 0
    faces with face-decomposition tet quality < 1e-15      : 0
    faces with concavity > 80  degrees                     : 0
    faces with skewness > 4   (internal) or 20  (boundary) : 0
    faces with interpolation weights (0..1)  < 0.02        : 0
    faces with volume ratio of neighbour cells < 0.01      : 0
    faces with face twist < 0.02                           : 0
    faces on cells with determinant < 0.001                : 0
displacementMedialAxis : Successfully moved mesh
displacementMedialAxis : Finished moving mesh ...
truncateDisplacement : Unextruded 0 faces due to non-consecutive vertices being extruded.
truncateDisplacement : Unextruded 0 faces due to stringed edges with inconsistent extrusion.

Setting up information for layer truncation ...

Checking mesh with layer ...
Checking faces in error :
    non-orthogonality > 65  degrees                        : 0
    faces with face pyramid volume < 1e-13                 : 0
    faces with face-decomposition tet quality < 1e-15      : 0
    faces with concavity > 80  degrees                     : 0
    faces with skewness > 4   (internal) or 20  (boundary) : 0
    faces with interpolation weights (0..1)  < 0.02        : 0
    faces with volume ratio of neighbour cells < 0.01      : 0
    faces with face twist < 0.02                           : 0
    faces on cells with determinant < 0.001                : 0
Detected 0 illegal faces (concave, zero area or negative cell pyramid volume)
Extruding 22977 out of 23935 faces (95.9975%). Removed extrusion at 0 faces.
Added 22977 out of 23935 cells (95.9975%).
Edge intersection testing:
    Number of edges             : 939066
    Number of edges to retest   : 0
    Number of intersected edges : 38036

Doing final balancing
---------------------

Writing 22977 added cells to cellSet addedCells
Writing 0 faces inside added layer to faceSet layerFaces

Writing fields with layer information:
    nSurfaceLayers    : actual number of layers
    thickness         : overall layer thickness
    thicknessFraction : overall layer thickness (fraction of desired thickness)


patch     faces    layers   overall thickness
                            [m]       [%]
-----     -----    ------   ---       ---
lowerWall 4402     1        0.0298    97.1    
motorBike 19533    0.951    0.00538   88.2    

Layer mesh : cells:298459  faces:939066  points:347026
Cells per refinement level:
    0	911
    1	2353
    2	7157
    3	14842
    4	154777
    5	48917
    6	69502
Writing mesh to time constant
Wrote mesh in = 27.73 s.
Layers added in = 27.73 s.
Checking final mesh ...
Checking faces in error :
    non-orthogonality > 65  degrees                        : 0
    faces with face pyramid volume < 1e-13                 : 0
    faces with face-decomposition tet quality < 1e-15      : 0
    faces with concavity > 80  degrees                     : 0
    faces with skewness > 4   (internal) or 20  (boundary) : 0
    faces with interpolation weights (0..1)  < 0.02        : 0
    faces with volume ratio of neighbour cells < 0.01      : 0
    faces with face twist < 0.02                           : 0
    faces on cells with determinant < 0.001                : 0
Finished meshing without any errors
Finished meshing in = 86.29 s.
End

Finalising parallel run
