/*---------------------------------------------------------------------------*\
  =========                 |
  \\      /  F ield         | OpenFOAM: The Open Source CFD Toolbox
   \\    /   O peration     | Website:  https://openfoam.org
    \\  /    A nd           | Version:  8
     \\/     M anipulation  |
\*---------------------------------------------------------------------------*/
Build  : 8
Exec   : simpleFoam -parallel
Date   : Apr 14 2021
Time   : 21:05:10
Host   : "Arch"
PID    : 22730
I/O    : uncollated
Case   : /home/apaaris/git/cfd/cc
nProcs : 4
Slaves : 
3
(
"Arch.22731"
"Arch.22732"
"Arch.22733"
)

Pstream initialized with:
    floatTransfer      : 0
    nProcsSimpleSum    : 0
    commsType          : nonBlocking
    polling iterations : 0
sigFpe : Enabling floating point exception trapping (FOAM_SIGFPE).
fileModificationChecking : Monitoring run-time modified files using timeStampMaster (fileModificationSkew 10)
allowSystemOperations : Allowing user-supplied system call operations

// * * * * * * * * * * * * * * * * * * * * * * * * * * * * * * * * * * * * * //
Create time

Create mesh for time = 0


SIMPLE: No convergence criteria found

Reading field p

Reading field U

Reading/calculating face flux field phi

Selecting incompressible transport model Newtonian
Selecting turbulence model type RAS
Selecting RAS turbulence model kOmegaSST
Selecting patchDistMethod meshWave
RAS
{
    model           kOmegaSST;
    turbulence      on;
    printCoeffs     on;
    alphaK1         0.85;
    alphaK2         1;
    alphaOmega1     0.5;
    alphaOmega2     0.856;
    gamma1          0.555556;
    gamma2          0.44;
    beta1           0.075;
    beta2           0.0828;
    betaStar        0.09;
    a1              0.31;
    b1              1;
    c1              10;
    F3              false;
}

No MRF models present

No finite volume options present

Starting time loop

streamLine streamLines:
    automatic track length specified through number of sub cycles : 5

Reading surface description:
    yNormal

forces forceCoeffs1:
    Not including porosity effects
forceCoeffs forceCoeffs1:
    Not including porosity effects
streamLine streamLines write:
    seeded 20 particles
    Tracks:20
    Total samples:15775
    Writing data to "/home/apaaris/git/cfd/cc/postProcessing/sets/streamLines/0"
forceCoeffs forceCoeffs1 write:
    Cm    = 0.0630472
    Cd    = 0.021421
    Cl    = -0.000250597
    Cl(f) = 0.0629219
    Cl(r) = -0.0631725

Time = 1

smoothSolver:  Solving for Ux, Initial residual = 0.212732, Final residual = 0.0193409, No Iterations 8
smoothSolver:  Solving for Uy, Initial residual = 0.550973, Final residual = 0.0440274, No Iterations 8
smoothSolver:  Solving for Uz, Initial residual = 0.564653, Final residual = 0.0519647, No Iterations 7
GAMG:  Solving for p, Initial residual = 1, Final residual = 0.00999543, No Iterations 5
time step continuity errors : sum local = 0.00237408, global = 0.000119628, cumulative = 0.000119628
smoothSolver:  Solving for omega, Initial residual = 0.00357274, Final residual = 0.000193123, No Iterations 4
smoothSolver:  Solving for k, Initial residual = 1, Final residual = 0.0941551, No Iterations 3
ExecutionTime = 2.95 s  ClockTime = 3 s

forceCoeffs forceCoeffs1 write:
    Cm    = 11.218
    Cd    = 3.83127
    Cl    = -0.27145
    Cl(f) = 11.0823
    Cl(r) = -11.3537

Time = 2

smoothSolver:  Solving for Ux, Initial residual = 0.121291, Final residual = 0.0117146, No Iterations 7
smoothSolver:  Solving for Uy, Initial residual = 0.411264, Final residual = 0.0361852, No Iterations 7
smoothSolver:  Solving for Uz, Initial residual = 0.387559, Final residual = 0.0320011, No Iterations 7
GAMG:  Solving for p, Initial residual = 0.109357, Final residual = 0.000847292, No Iterations 5
time step continuity errors : sum local = 0.00155812, global = 2.18689e-05, cumulative = 0.000141497
smoothSolver:  Solving for omega, Initial residual = 0.00478232, Final residual = 0.00028819, No Iterations 4
smoothSolver:  Solving for k, Initial residual = 0.10595, Final residual = 0.0105931, No Iterations 3
ExecutionTime = 3.54 s  ClockTime = 3 s

forceCoeffs forceCoeffs1 write:
    Cm    = 11.7151
    Cd    = 4.04827
    Cl    = -0.22831
    Cl(f) = 11.6009
    Cl(r) = -11.8292

Time = 3

smoothSolver:  Solving for Ux, Initial residual = 0.0716421, Final residual = 0.00650778, No Iterations 7
smoothSolver:  Solving for Uy, Initial residual = 0.334881, Final residual = 0.0245848, No Iterations 7
smoothSolver:  Solving for Uz, Initial residual = 0.294173, Final residual = 0.0208114, No Iterations 7
GAMG:  Solving for p, Initial residual = 0.0705702, Final residual = 0.00044014, No Iterations 5
time step continuity errors : sum local = 0.00115224, global = 3.54779e-06, cumulative = 0.000145045
smoothSolver:  Solving for omega, Initial residual = 0.00493136, Final residual = 0.000477783, No Iterations 3
smoothSolver:  Solving for k, Initial residual = 0.0479067, Final residual = 0.00231709, No Iterations 4
ExecutionTime = 4.15 s  ClockTime = 4 s

forceCoeffs forceCoeffs1 write:
    Cm    = 9.59359
    Cd    = 3.35264
    Cl    = -0.146238
    Cl(f) = 9.52047
    Cl(r) = -9.66671

Time = 4

smoothSolver:  Solving for Ux, Initial residual = 0.0487205, Final residual = 0.00411129, No Iterations 7
smoothSolver:  Solving for Uy, Initial residual = 0.270309, Final residual = 0.0185307, No Iterations 7
smoothSolver:  Solving for Uz, Initial residual = 0.224074, Final residual = 0.0153394, No Iterations 7
GAMG:  Solving for p, Initial residual = 0.0563562, Final residual = 0.00028074, No Iterations 5
time step continuity errors : sum local = 0.000858738, global = 7.76961e-06, cumulative = 0.000152814
smoothSolver:  Solving for omega, Initial residual = 0.00510998, Final residual = 0.000475628, No Iterations 3
smoothSolver:  Solving for k, Initial residual = 0.0276189, Final residual = 0.00273566, No Iterations 3
ExecutionTime = 4.74 s  ClockTime = 4 s

forceCoeffs forceCoeffs1 write:
    Cm    = 7.56849
    Cd    = 2.67154
    Cl    = -0.0873406
    Cl(f) = 7.52482
    Cl(r) = -7.61216

Time = 5

smoothSolver:  Solving for Ux, Initial residual = 0.0370506, Final residual = 0.00274265, No Iterations 7
smoothSolver:  Solving for Uy, Initial residual = 0.21443, Final residual = 0.0142499, No Iterations 7
smoothSolver:  Solving for Uz, Initial residual = 0.18292, Final residual = 0.0180084, No Iterations 6
GAMG:  Solving for p, Initial residual = 0.047587, Final residual = 0.000213799, No Iterations 5
time step continuity errors : sum local = 0.000711607, global = 5.55621e-06, cumulative = 0.000158371
smoothSolver:  Solving for omega, Initial residual = 0.00493389, Final residual = 0.000424279, No Iterations 3
smoothSolver:  Solving for k, Initial residual = 0.0188383, Final residual = 0.00184583, No Iterations 3
ExecutionTime = 5.34 s  ClockTime = 5 s

forceCoeffs forceCoeffs1 write:
    Cm    = 6.24127
    Cd    = 2.22119
    Cl    = -0.0431606
    Cl(f) = 6.21969
    Cl(r) = -6.26285

Time = 6

smoothSolver:  Solving for Ux, Initial residual = 0.0295517, Final residual = 0.0020013, No Iterations 7
smoothSolver:  Solving for Uy, Initial residual = 0.171013, Final residual = 0.0114058, No Iterations 7
smoothSolver:  Solving for Uz, Initial residual = 0.15299, Final residual = 0.0146743, No Iterations 6
GAMG:  Solving for p, Initial residual = 0.0431573, Final residual = 0.000203569, No Iterations 5
time step continuity errors : sum local = 0.000707865, global = 3.25208e-06, cumulative = 0.000161623
smoothSolver:  Solving for omega, Initial residual = 0.00416436, Final residual = 0.000375599, No Iterations 3
smoothSolver:  Solving for k, Initial residual = 0.0152559, Final residual = 0.00149205, No Iterations 3
ExecutionTime = 5.94 s  ClockTime = 6 s

forceCoeffs forceCoeffs1 write:
    Cm    = 5.60131
    Cd    = 2.00132
    Cl    = -0.013284
    Cl(f) = 5.59467
    Cl(r) = -5.60796

Time = 7

smoothSolver:  Solving for Ux, Initial residual = 0.024064, Final residual = 0.00237027, No Iterations 6
smoothSolver:  Solving for Uy, Initial residual = 0.144437, Final residual = 0.0139086, No Iterations 6
smoothSolver:  Solving for Uz, Initial residual = 0.133261, Final residual = 0.0128448, No Iterations 6
GAMG:  Solving for p, Initial residual = 0.0413908, Final residual = 0.000205352, No Iterations 5
time step continuity errors : sum local = 0.000725733, global = 7.64526e-06, cumulative = 0.000169268
smoothSolver:  Solving for omega, Initial residual = 0.00376238, Final residual = 0.000337581, No Iterations 3
smoothSolver:  Solving for k, Initial residual = 0.0136736, Final residual = 0.00131187, No Iterations 3
ExecutionTime = 6.52 s  ClockTime = 6 s

forceCoeffs forceCoeffs1 write:
    Cm    = 5.48108
    Cd    = 1.95531
    Cl    = 6.62714e-05
    Cl(f) = 5.48111
    Cl(r) = -5.48105

Time = 8

smoothSolver:  Solving for Ux, Initial residual = 0.0204301, Final residual = 0.00203467, No Iterations 6
smoothSolver:  Solving for Uy, Initial residual = 0.129322, Final residual = 0.0117889, No Iterations 6
smoothSolver:  Solving for Uz, Initial residual = 0.119111, Final residual = 0.0114122, No Iterations 6
GAMG:  Solving for p, Initial residual = 0.0397071, Final residual = 0.000192551, No Iterations 5
time step continuity errors : sum local = 0.000683981, global = 1.69696e-05, cumulative = 0.000186237
smoothSolver:  Solving for omega, Initial residual = 0.00336504, Final residual = 0.000307206, No Iterations 3
smoothSolver:  Solving for k, Initial residual = 0.0132357, Final residual = 0.0012438, No Iterations 3
ExecutionTime = 7.11 s  ClockTime = 7 s

forceCoeffs forceCoeffs1 write:
    Cm    = 5.6386
    Cd    = 2.00295
    Cl    = 0.00391761
    Cl(f) = 5.64056
    Cl(r) = -5.63664

Time = 9

smoothSolver:  Solving for Ux, Initial residual = 0.0182637, Final residual = 0.0012733, No Iterations 7
smoothSolver:  Solving for Uy, Initial residual = 0.12028, Final residual = 0.0105192, No Iterations 6
smoothSolver:  Solving for Uz, Initial residual = 0.107371, Final residual = 0.0102499, No Iterations 6
GAMG:  Solving for p, Initial residual = 0.0387503, Final residual = 0.000180511, No Iterations 5
time step continuity errors : sum local = 0.000641786, global = 2.80453e-05, cumulative = 0.000214283
smoothSolver:  Solving for omega, Initial residual = 0.00302113, Final residual = 0.000274921, No Iterations 3
smoothSolver:  Solving for k, Initial residual = 0.0127534, Final residual = 0.00117067, No Iterations 3
ExecutionTime = 7.68 s  ClockTime = 7 s

forceCoeffs forceCoeffs1 write:
    Cm    = 5.85719
    Cd    = 2.07371
    Cl    = 0.00980372
    Cl(f) = 5.86209
    Cl(r) = -5.85229

Time = 10

smoothSolver:  Solving for Ux, Initial residual = 0.0169239, Final residual = 0.00118825, No Iterations 7
smoothSolver:  Solving for Uy, Initial residual = 0.113992, Final residual = 0.00984122, No Iterations 6
smoothSolver:  Solving for Uz, Initial residual = 0.0977758, Final residual = 0.00925068, No Iterations 6
GAMG:  Solving for p, Initial residual = 0.0379607, Final residual = 0.000172996, No Iterations 5
time step continuity errors : sum local = 0.000611717, global = 3.51122e-05, cumulative = 0.000249395
smoothSolver:  Solving for omega, Initial residual = 0.00273166, Final residual = 0.000246186, No Iterations 3
smoothSolver:  Solving for k, Initial residual = 0.0121952, Final residual = 0.00109461, No Iterations 3
ExecutionTime = 8.28 s  ClockTime = 8 s

forceCoeffs forceCoeffs1 write:
    Cm    = 6.08285
    Cd    = 2.15095
    Cl    = 0.0242669
    Cl(f) = 6.09498
    Cl(r) = -6.07072

Time = 11

smoothSolver:  Solving for Ux, Initial residual = 0.0161921, Final residual = 0.0016063, No Iterations 6
smoothSolver:  Solving for Uy, Initial residual = 0.110305, Final residual = 0.00941839, No Iterations 6
smoothSolver:  Solving for Uz, Initial residual = 0.0903007, Final residual = 0.00843627, No Iterations 6
GAMG:  Solving for p, Initial residual = 0.0367333, Final residual = 0.000166879, No Iterations 5
time step continuity errors : sum local = 0.000586159, global = 3.53595e-05, cumulative = 0.000284754
smoothSolver:  Solving for omega, Initial residual = 0.00243755, Final residual = 0.000215985, No Iterations 3
smoothSolver:  Solving for k, Initial residual = 0.011359, Final residual = 0.000979546, No Iterations 3
ExecutionTime = 8.85 s  ClockTime = 8 s

forceCoeffs forceCoeffs1 write:
    Cm    = 6.2923
    Cd    = 2.22852
    Cl    = 0.0543466
    Cl(f) = 6.31947
    Cl(r) = -6.26513

Time = 12

smoothSolver:  Solving for Ux, Initial residual = 0.0157486, Final residual = 0.00153323, No Iterations 6
smoothSolver:  Solving for Uy, Initial residual = 0.105619, Final residual = 0.00889054, No Iterations 6
smoothSolver:  Solving for Uz, Initial residual = 0.083601, Final residual = 0.0076121, No Iterations 6
GAMG:  Solving for p, Initial residual = 0.0356363, Final residual = 0.000351463, No Iterations 4
time step continuity errors : sum local = 0.00122442, global = 5.42274e-05, cumulative = 0.000338982
smoothSolver:  Solving for omega, Initial residual = 0.00218668, Final residual = 0.000190703, No Iterations 3
smoothSolver:  Solving for k, Initial residual = 0.0104937, Final residual = 0.000874574, No Iterations 3
ExecutionTime = 9.42 s  ClockTime = 9 s

forceCoeffs forceCoeffs1 write:
    Cm    = 6.41643
    Cd    = 2.28471
    Cl    = 0.10647
    Cl(f) = 6.46967
    Cl(r) = -6.3632

Time = 13

smoothSolver:  Solving for Ux, Initial residual = 0.0151685, Final residual = 0.00146123, No Iterations 6
smoothSolver:  Solving for Uy, Initial residual = 0.0998796, Final residual = 0.00834387, No Iterations 6
smoothSolver:  Solving for Uz, Initial residual = 0.0763072, Final residual = 0.00682496, No Iterations 6
GAMG:  Solving for p, Initial residual = 0.0342583, Final residual = 0.000331249, No Iterations 4
time step continuity errors : sum local = 0.00114875, global = 3.86215e-05, cumulative = 0.000377603
smoothSolver:  Solving for omega, Initial residual = 0.00197003, Final residual = 0.000167656, No Iterations 3
smoothSolver:  Solving for k, Initial residual = 0.010033, Final residual = 0.000804441, No Iterations 3
ExecutionTime = 9.98 s  ClockTime = 10 s

forceCoeffs forceCoeffs1 write:
    Cm    = 6.48593
    Cd    = 2.3315
    Cl    = 0.185726
    Cl(f) = 6.5788
    Cl(r) = -6.39307

Time = 14

smoothSolver:  Solving for Ux, Initial residual = 0.0145304, Final residual = 0.00139068, No Iterations 6
smoothSolver:  Solving for Uy, Initial residual = 0.0937551, Final residual = 0.0077828, No Iterations 6
smoothSolver:  Solving for Uz, Initial residual = 0.0705579, Final residual = 0.00622835, No Iterations 6
GAMG:  Solving for p, Initial residual = 0.0331919, Final residual = 0.000310364, No Iterations 4
time step continuity errors : sum local = 0.00106808, global = 2.94767e-05, cumulative = 0.00040708
smoothSolver:  Solving for omega, Initial residual = 0.00176375, Final residual = 0.000146473, No Iterations 3
smoothSolver:  Solving for k, Initial residual = 0.00920836, Final residual = 0.000735641, No Iterations 3
ExecutionTime = 10.55 s  ClockTime = 10 s

forceCoeffs forceCoeffs1 write:
    Cm    = 6.53475
    Cd    = 2.37738
    Cl    = 0.283076
    Cl(f) = 6.67629
    Cl(r) = -6.39321

Time = 15

smoothSolver:  Solving for Ux, Initial residual = 0.0140977, Final residual = 0.0013282, No Iterations 6
smoothSolver:  Solving for Uy, Initial residual = 0.088898, Final residual = 0.00734929, No Iterations 6
smoothSolver:  Solving for Uz, Initial residual = 0.0668812, Final residual = 0.00582577, No Iterations 6
GAMG:  Solving for p, Initial residual = 0.0324588, Final residual = 0.000290245, No Iterations 4
time step continuity errors : sum local = 0.000997613, global = 9.61501e-06, cumulative = 0.000416695
smoothSolver:  Solving for omega, Initial residual = 0.00157619, Final residual = 0.000128595, No Iterations 3
smoothSolver:  Solving for k, Initial residual = 0.00867214, Final residual = 0.000687227, No Iterations 3
ExecutionTime = 11.11 s  ClockTime = 11 s

forceCoeffs forceCoeffs1 write:
    Cm    = 6.59925
    Cd    = 2.42869
    Cl    = 0.380725
    Cl(f) = 6.78961
    Cl(r) = -6.40888

Time = 16

smoothSolver:  Solving for Ux, Initial residual = 0.0135241, Final residual = 0.00123027, No Iterations 6
smoothSolver:  Solving for Uy, Initial residual = 0.0851701, Final residual = 0.00698993, No Iterations 6
smoothSolver:  Solving for Uz, Initial residual = 0.0642404, Final residual = 0.00545862, No Iterations 6
GAMG:  Solving for p, Initial residual = 0.0316909, Final residual = 0.000266406, No Iterations 4
time step continuity errors : sum local = 0.000916986, global = -6.88799e-06, cumulative = 0.000409807
smoothSolver:  Solving for omega, Initial residual = 0.00141012, Final residual = 0.000113487, No Iterations 3
smoothSolver:  Solving for k, Initial residual = 0.00823607, Final residual = 0.000651665, No Iterations 3
ExecutionTime = 11.67 s  ClockTime = 11 s

forceCoeffs forceCoeffs1 write:
    Cm    = 6.68799
    Cd    = 2.4837
    Cl    = 0.464712
    Cl(f) = 6.92034
    Cl(r) = -6.45563

Time = 17

smoothSolver:  Solving for Ux, Initial residual = 0.012764, Final residual = 0.0011267, No Iterations 6
smoothSolver:  Solving for Uy, Initial residual = 0.0817332, Final residual = 0.00659618, No Iterations 6
smoothSolver:  Solving for Uz, Initial residual = 0.0619234, Final residual = 0.00510097, No Iterations 6
GAMG:  Solving for p, Initial residual = 0.0305959, Final residual = 0.000236455, No Iterations 4
time step continuity errors : sum local = 0.000818808, global = -1.04542e-05, cumulative = 0.000399353
smoothSolver:  Solving for omega, Initial residual = 0.001282, Final residual = 0.000102413, No Iterations 3
smoothSolver:  Solving for k, Initial residual = 0.00810684, Final residual = 0.000628034, No Iterations 3
ExecutionTime = 12.23 s  ClockTime = 12 s

forceCoeffs forceCoeffs1 write:
    Cm    = 6.78311
    Cd    = 2.53284
    Cl    = 0.523968
    Cl(f) = 7.0451
    Cl(r) = -6.52113

Time = 18

smoothSolver:  Solving for Ux, Initial residual = 0.0119776, Final residual = 0.00103479, No Iterations 6
smoothSolver:  Solving for Uy, Initial residual = 0.0785695, Final residual = 0.00624092, No Iterations 6
smoothSolver:  Solving for Uz, Initial residual = 0.0599302, Final residual = 0.00481198, No Iterations 6
GAMG:  Solving for p, Initial residual = 0.0295712, Final residual = 0.000205252, No Iterations 4
time step continuity errors : sum local = 0.00071526, global = 9.89673e-06, cumulative = 0.00040925
smoothSolver:  Solving for omega, Initial residual = 0.00115964, Final residual = 9.24693e-05, No Iterations 3
smoothSolver:  Solving for k, Initial residual = 0.00797971, Final residual = 0.000614055, No Iterations 3
ExecutionTime = 12.81 s  ClockTime = 12 s

forceCoeffs forceCoeffs1 write:
    Cm    = 6.8634
    Cd    = 2.5683
    Cl    = 0.556351
    Cl(f) = 7.14158
    Cl(r) = -6.58523

Time = 19

smoothSolver:  Solving for Ux, Initial residual = 0.0112229, Final residual = 0.000956732, No Iterations 6
smoothSolver:  Solving for Uy, Initial residual = 0.0749526, Final residual = 0.00588978, No Iterations 6
smoothSolver:  Solving for Uz, Initial residual = 0.058566, Final residual = 0.00458718, No Iterations 6
GAMG:  Solving for p, Initial residual = 0.0284826, Final residual = 0.000173594, No Iterations 4
time step continuity errors : sum local = 0.000608818, global = 4.06097e-05, cumulative = 0.000449859
smoothSolver:  Solving for omega, Initial residual = 0.00104728, Final residual = 8.31617e-05, No Iterations 3
smoothSolver:  Solving for k, Initial residual = 0.00781612, Final residual = 0.000594797, No Iterations 3
ExecutionTime = 13.37 s  ClockTime = 13 s

forceCoeffs forceCoeffs1 write:
    Cm    = 6.91545
    Cd    = 2.58694
    Cl    = 0.565727
    Cl(f) = 7.19832
    Cl(r) = -6.63259

Time = 20

smoothSolver:  Solving for Ux, Initial residual = 0.0105306, Final residual = 0.000881296, No Iterations 6
smoothSolver:  Solving for Uy, Initial residual = 0.0712407, Final residual = 0.0054121, No Iterations 6
smoothSolver:  Solving for Uz, Initial residual = 0.0573177, Final residual = 0.00435818, No Iterations 6
GAMG:  Solving for p, Initial residual = 0.0271109, Final residual = 0.000149212, No Iterations 4
time step continuity errors : sum local = 0.000527688, global = 5.63995e-05, cumulative = 0.000506259
smoothSolver:  Solving for omega, Initial residual = 0.000938753, Final residual = 7.44956e-05, No Iterations 3
smoothSolver:  Solving for k, Initial residual = 0.00764336, Final residual = 0.000575139, No Iterations 3
ExecutionTime = 13.95 s  ClockTime = 14 s

forceCoeffs forceCoeffs1 write:
    Cm    = 6.93712
    Cd    = 2.58947
    Cl    = 0.555806
    Cl(f) = 7.21503
    Cl(r) = -6.65922

Time = 21

smoothSolver:  Solving for Ux, Initial residual = 0.00992038, Final residual = 0.000807823, No Iterations 6
smoothSolver:  Solving for Uy, Initial residual = 0.0673336, Final residual = 0.00488234, No Iterations 6
smoothSolver:  Solving for Uz, Initial residual = 0.0557791, Final residual = 0.00412044, No Iterations 6
GAMG:  Solving for p, Initial residual = 0.0257739, Final residual = 0.00013681, No Iterations 4
time step continuity errors : sum local = 0.000488428, global = 5.62832e-05, cumulative = 0.000562542
smoothSolver:  Solving for omega, Initial residual = 0.00085887, Final residual = 6.67351e-05, No Iterations 3
smoothSolver:  Solving for k, Initial residual = 0.00746085, Final residual = 0.000550659, No Iterations 3
ExecutionTime = 14.5 s  ClockTime = 14 s

forceCoeffs forceCoeffs1 write:
    Cm    = 6.93578
    Cd    = 2.57934
    Cl    = 0.529257
    Cl(f) = 7.20041
    Cl(r) = -6.67115

Time = 22

smoothSolver:  Solving for Ux, Initial residual = 0.00938224, Final residual = 0.000745575, No Iterations 6
smoothSolver:  Solving for Uy, Initial residual = 0.0640328, Final residual = 0.00443463, No Iterations 6
smoothSolver:  Solving for Uz, Initial residual = 0.0539243, Final residual = 0.00388817, No Iterations 6
GAMG:  Solving for p, Initial residual = 0.0246475, Final residual = 0.000134218, No Iterations 4
time step continuity errors : sum local = 0.000484095, global = 5.3474e-05, cumulative = 0.000616016
smoothSolver:  Solving for omega, Initial residual = 0.000792089, Final residual = 6.02043e-05, No Iterations 3
smoothSolver:  Solving for k, Initial residual = 0.00742988, Final residual = 0.000520211, No Iterations 3
ExecutionTime = 15.08 s  ClockTime = 15 s

forceCoeffs forceCoeffs1 write:
    Cm    = 6.93036
    Cd    = 2.56328
    Cl    = 0.487152
    Cl(f) = 7.17394
    Cl(r) = -6.68679

Time = 23

smoothSolver:  Solving for Ux, Initial residual = 0.00889745, Final residual = 0.000698543, No Iterations 6
smoothSolver:  Solving for Uy, Initial residual = 0.0611768, Final residual = 0.00411115, No Iterations 6
smoothSolver:  Solving for Uz, Initial residual = 0.0519364, Final residual = 0.00364297, No Iterations 6
GAMG:  Solving for p, Initial residual = 0.0234358, Final residual = 0.00013475, No Iterations 4
time step continuity errors : sum local = 0.000491198, global = 4.86987e-05, cumulative = 0.000664715
smoothSolver:  Solving for omega, Initial residual = 0.000736829, Final residual = 5.49997e-05, No Iterations 3
smoothSolver:  Solving for k, Initial residual = 0.00740142, Final residual = 0.000498163, No Iterations 3
ExecutionTime = 15.64 s  ClockTime = 15 s

forceCoeffs forceCoeffs1 write:
    Cm    = 6.94105
    Cd    = 2.54943
    Cl    = 0.43382
    Cl(f) = 7.15796
    Cl(r) = -6.72414

Time = 24

smoothSolver:  Solving for Ux, Initial residual = 0.00842363, Final residual = 0.000656948, No Iterations 6
smoothSolver:  Solving for Uy, Initial residual = 0.0586177, Final residual = 0.00394571, No Iterations 6
smoothSolver:  Solving for Uz, Initial residual = 0.0500058, Final residual = 0.00340157, No Iterations 6
GAMG:  Solving for p, Initial residual = 0.0221691, Final residual = 0.000134946, No Iterations 4
time step continuity errors : sum local = 0.000497203, global = 4.14142e-05, cumulative = 0.000706129
smoothSolver:  Solving for omega, Initial residual = 0.0006863, Final residual = 5.03267e-05, No Iterations 3
smoothSolver:  Solving for k, Initial residual = 0.00743701, Final residual = 0.000481303, No Iterations 3
ExecutionTime = 16.22 s  ClockTime = 16 s

forceCoeffs forceCoeffs1 write:
    Cm    = 6.97429
    Cd    = 2.5415
    Cl    = 0.37431
    Cl(f) = 7.16145
    Cl(r) = -6.78714

Time = 25

smoothSolver:  Solving for Ux, Initial residual = 0.00794798, Final residual = 0.000620001, No Iterations 6
smoothSolver:  Solving for Uy, Initial residual = 0.056466, Final residual = 0.00385741, No Iterations 6
smoothSolver:  Solving for Uz, Initial residual = 0.0482779, Final residual = 0.00321114, No Iterations 6
GAMG:  Solving for p, Initial residual = 0.0209101, Final residual = 0.00013695, No Iterations 4
time step continuity errors : sum local = 0.000509804, global = 3.41564e-05, cumulative = 0.000740285
smoothSolver:  Solving for omega, Initial residual = 0.000640192, Final residual = 4.60728e-05, No Iterations 3
smoothSolver:  Solving for k, Initial residual = 0.00710231, Final residual = 0.000463348, No Iterations 3
ExecutionTime = 16.78 s  ClockTime = 16 s

forceCoeffs forceCoeffs1 write:
    Cm    = 7.02317
    Cd    = 2.53918
    Cl    = 0.315485
    Cl(f) = 7.18092
    Cl(r) = -6.86543

Time = 26

smoothSolver:  Solving for Ux, Initial residual = 0.00744695, Final residual = 0.000572944, No Iterations 6
smoothSolver:  Solving for Uy, Initial residual = 0.054003, Final residual = 0.00375567, No Iterations 6
smoothSolver:  Solving for Uz, Initial residual = 0.0463585, Final residual = 0.00303719, No Iterations 6
GAMG:  Solving for p, Initial residual = 0.019696, Final residual = 0.00013398, No Iterations 4
time step continuity errors : sum local = 0.000503872, global = 1.98618e-05, cumulative = 0.000760147
smoothSolver:  Solving for omega, Initial residual = 0.000588488, Final residual = 4.20189e-05, No Iterations 3
smoothSolver:  Solving for k, Initial residual = 0.00674185, Final residual = 0.000442357, No Iterations 3
ExecutionTime = 17.36 s  ClockTime = 17 s

forceCoeffs forceCoeffs1 write:
    Cm    = 7.07277
    Cd    = 2.53927
    Cl    = 0.263325
    Cl(f) = 7.20444
    Cl(r) = -6.94111

Time = 27

smoothSolver:  Solving for Ux, Initial residual = 0.00694688, Final residual = 0.000521906, No Iterations 6
smoothSolver:  Solving for Uy, Initial residual = 0.0512467, Final residual = 0.00355031, No Iterations 6
smoothSolver:  Solving for Uz, Initial residual = 0.0438598, Final residual = 0.0028346, No Iterations 6
GAMG:  Solving for p, Initial residual = 0.0186866, Final residual = 0.000119967, No Iterations 4
time step continuity errors : sum local = 0.000455315, global = 7.04119e-07, cumulative = 0.000760851
smoothSolver:  Solving for omega, Initial residual = 0.000540757, Final residual = 3.83341e-05, No Iterations 3
smoothSolver:  Solving for k, Initial residual = 0.00629863, Final residual = 0.000416717, No Iterations 3
ExecutionTime = 17.91 s  ClockTime = 18 s

forceCoeffs forceCoeffs1 write:
    Cm    = 7.10778
    Cd    = 2.53787
    Cl    = 0.221894
    Cl(f) = 7.21872
    Cl(r) = -6.99683

Time = 28

smoothSolver:  Solving for Ux, Initial residual = 0.00638535, Final residual = 0.000476098, No Iterations 6
smoothSolver:  Solving for Uy, Initial residual = 0.0482944, Final residual = 0.00331839, No Iterations 6
smoothSolver:  Solving for Uz, Initial residual = 0.0408692, Final residual = 0.00405234, No Iterations 5
GAMG:  Solving for p, Initial residual = 0.0179142, Final residual = 9.93537e-05, No Iterations 4
time step continuity errors : sum local = 0.00038031, global = -1.71579e-05, cumulative = 0.000743693
smoothSolver:  Solving for omega, Initial residual = 0.000505806, Final residual = 3.54774e-05, No Iterations 3
smoothSolver:  Solving for k, Initial residual = 0.00591661, Final residual = 0.000391404, No Iterations 3
ExecutionTime = 18.5 s  ClockTime = 18 s

forceCoeffs forceCoeffs1 write:
    Cm    = 7.119
    Cd    = 2.53246
    Cl    = 0.193293
    Cl(f) = 7.21565
    Cl(r) = -7.02235

Time = 29

smoothSolver:  Solving for Ux, Initial residual = 0.0058885, Final residual = 0.000443729, No Iterations 6
smoothSolver:  Solving for Uy, Initial residual = 0.0461211, Final residual = 0.00312833, No Iterations 6
smoothSolver:  Solving for Uz, Initial residual = 0.0383738, Final residual = 0.00372741, No Iterations 5
GAMG:  Solving for p, Initial residual = 0.0174599, Final residual = 9.1708e-05, No Iterations 4
time step continuity errors : sum local = 0.000353574, global = -2.31714e-05, cumulative = 0.000720522
smoothSolver:  Solving for omega, Initial residual = 0.000480836, Final residual = 3.28929e-05, No Iterations 3
smoothSolver:  Solving for k, Initial residual = 0.00570657, Final residual = 0.000363079, No Iterations 3
ExecutionTime = 19.05 s  ClockTime = 19 s

forceCoeffs forceCoeffs1 write:
    Cm    = 7.10582
    Cd    = 2.52221
    Cl    = 0.175568
    Cl(f) = 7.1936
    Cl(r) = -7.01804

Time = 30

smoothSolver:  Solving for Ux, Initial residual = 0.00560312, Final residual = 0.000424782, No Iterations 6
smoothSolver:  Solving for Uy, Initial residual = 0.044977, Final residual = 0.00301753, No Iterations 6
smoothSolver:  Solving for Uz, Initial residual = 0.0370721, Final residual = 0.00364084, No Iterations 5
GAMG:  Solving for p, Initial residual = 0.0171224, Final residual = 8.91558e-05, No Iterations 4
time step continuity errors : sum local = 0.000345931, global = -1.99871e-05, cumulative = 0.000700535
smoothSolver:  Solving for omega, Initial residual = 0.000462797, Final residual = 3.07847e-05, No Iterations 3
smoothSolver:  Solving for k, Initial residual = 0.00565499, Final residual = 0.00034147, No Iterations 3
ExecutionTime = 19.62 s  ClockTime = 19 s

forceCoeffs forceCoeffs1 write:
    Cm    = 7.06803
    Cd    = 2.50591
    Cl    = 0.165123
    Cl(f) = 7.15059
    Cl(r) = -6.98547

Time = 31

smoothSolver:  Solving for Ux, Initial residual = 0.00551478, Final residual = 0.00041551, No Iterations 6
smoothSolver:  Solving for Uy, Initial residual = 0.0447338, Final residual = 0.00298254, No Iterations 6
smoothSolver:  Solving for Uz, Initial residual = 0.0369008, Final residual = 0.00234588, No Iterations 6
GAMG:  Solving for p, Initial residual = 0.0167701, Final residual = 8.769e-05, No Iterations 4
time step continuity errors : sum local = 0.00034234, global = -9.87205e-06, cumulative = 0.000690663
smoothSolver:  Solving for omega, Initial residual = 0.000440505, Final residual = 2.87563e-05, No Iterations 3
smoothSolver:  Solving for k, Initial residual = 0.00564024, Final residual = 0.000329955, No Iterations 3
ExecutionTime = 20.18 s  ClockTime = 20 s

forceCoeffs forceCoeffs1 write:
    Cm    = 7.00771
    Cd    = 2.48334
    Cl    = 0.159047
    Cl(f) = 7.08723
    Cl(r) = -6.92818

Time = 32

smoothSolver:  Solving for Ux, Initial residual = 0.00550388, Final residual = 0.000409972, No Iterations 6
smoothSolver:  Solving for Uy, Initial residual = 0.0444852, Final residual = 0.0029636, No Iterations 6
smoothSolver:  Solving for Uz, Initial residual = 0.0367942, Final residual = 0.00233552, No Iterations 6
GAMG:  Solving for p, Initial residual = 0.0163966, Final residual = 8.49897e-05, No Iterations 4
time step continuity errors : sum local = 0.000333797, global = 5.0078e-06, cumulative = 0.000695671
smoothSolver:  Solving for omega, Initial residual = 0.000420846, Final residual = 2.72572e-05, No Iterations 3
smoothSolver:  Solving for k, Initial residual = 0.0055397, Final residual = 0.000322495, No Iterations 3
ExecutionTime = 20.75 s  ClockTime = 20 s

forceCoeffs forceCoeffs1 write:
    Cm    = 6.93543
    Cd    = 2.45779
    Cl    = 0.156332
    Cl(f) = 7.0136
    Cl(r) = -6.85726

Time = 33

smoothSolver:  Solving for Ux, Initial residual = 0.0054464, Final residual = 0.000399968, No Iterations 6
smoothSolver:  Solving for Uy, Initial residual = 0.0436844, Final residual = 0.00292548, No Iterations 6
smoothSolver:  Solving for Uz, Initial residual = 0.0362776, Final residual = 0.00230772, No Iterations 6
GAMG:  Solving for p, Initial residual = 0.0159603, Final residual = 8.13959e-05, No Iterations 4
time step continuity errors : sum local = 0.000321297, global = 1.85825e-05, cumulative = 0.000714253
smoothSolver:  Solving for omega, Initial residual = 0.000402722, Final residual = 2.58207e-05, No Iterations 3
smoothSolver:  Solving for k, Initial residual = 0.00553357, Final residual = 0.000317106, No Iterations 3
ExecutionTime = 21.31 s  ClockTime = 21 s

forceCoeffs forceCoeffs1 write:
    Cm    = 6.86426
    Cd    = 2.43325
    Cl    = 0.155493
    Cl(f) = 6.942
    Cl(r) = -6.78651

Time = 34

smoothSolver:  Solving for Ux, Initial residual = 0.00528856, Final residual = 0.000379806, No Iterations 6
smoothSolver:  Solving for Uy, Initial residual = 0.0425563, Final residual = 0.0028678, No Iterations 6
smoothSolver:  Solving for Uz, Initial residual = 0.035274, Final residual = 0.00225559, No Iterations 6
GAMG:  Solving for p, Initial residual = 0.0155114, Final residual = 7.63118e-05, No Iterations 4
time step continuity errors : sum local = 0.000302323, global = 2.80603e-05, cumulative = 0.000742314
smoothSolver:  Solving for omega, Initial residual = 0.000384774, Final residual = 2.43801e-05, No Iterations 3
smoothSolver:  Solving for k, Initial residual = 0.00554949, Final residual = 0.000300439, No Iterations 3
ExecutionTime = 21.89 s  ClockTime = 22 s

forceCoeffs forceCoeffs1 write:
    Cm    = 6.80311
    Cd    = 2.41239
    Cl    = 0.15539
    Cl(f) = 6.8808
    Cl(r) = -6.72541

Time = 35

smoothSolver:  Solving for Ux, Initial residual = 0.00504958, Final residual = 0.000358185, No Iterations 6
smoothSolver:  Solving for Uy, Initial residual = 0.0412087, Final residual = 0.00282436, No Iterations 6
smoothSolver:  Solving for Uz, Initial residual = 0.0340368, Final residual = 0.00217234, No Iterations 6
GAMG:  Solving for p, Initial residual = 0.0151353, Final residual = 7.14363e-05, No Iterations 4
time step continuity errors : sum local = 0.000283786, global = 3.15781e-05, cumulative = 0.000773892
smoothSolver:  Solving for omega, Initial residual = 0.000364798, Final residual = 2.30503e-05, No Iterations 3
smoothSolver:  Solving for k, Initial residual = 0.00522612, Final residual = 0.000283916, No Iterations 3
ExecutionTime = 22.45 s  ClockTime = 22 s

forceCoeffs forceCoeffs1 write:
    Cm    = 6.75155
    Cd    = 2.39508
    Cl    = 0.155978
    Cl(f) = 6.82954
    Cl(r) = -6.67356

Time = 36

smoothSolver:  Solving for Ux, Initial residual = 0.00485007, Final residual = 0.000337312, No Iterations 6
smoothSolver:  Solving for Uy, Initial residual = 0.0400246, Final residual = 0.00274922, No Iterations 6
smoothSolver:  Solving for Uz, Initial residual = 0.0332465, Final residual = 0.00330633, No Iterations 5
GAMG:  Solving for p, Initial residual = 0.0148557, Final residual = 6.70509e-05, No Iterations 4
time step continuity errors : sum local = 0.000266641, global = 3.03555e-05, cumulative = 0.000804247
smoothSolver:  Solving for omega, Initial residual = 0.000346683, Final residual = 2.18167e-05, No Iterations 3
smoothSolver:  Solving for k, Initial residual = 0.00495314, Final residual = 0.000264503, No Iterations 3
ExecutionTime = 23.03 s  ClockTime = 23 s

forceCoeffs forceCoeffs1 write:
    Cm    = 6.70792
    Cd    = 2.38084
    Cl    = 0.157513
    Cl(f) = 6.78668
    Cl(r) = -6.62916

Time = 37

smoothSolver:  Solving for Ux, Initial residual = 0.00470445, Final residual = 0.000319342, No Iterations 6
smoothSolver:  Solving for Uy, Initial residual = 0.039031, Final residual = 0.00263185, No Iterations 6
smoothSolver:  Solving for Uz, Initial residual = 0.0330387, Final residual = 0.00319356, No Iterations 5
GAMG:  Solving for p, Initial residual = 0.0147412, Final residual = 6.49594e-05, No Iterations 4
time step continuity errors : sum local = 0.000258317, global = 2.55838e-05, cumulative = 0.000829831
smoothSolver:  Solving for omega, Initial residual = 0.000327703, Final residual = 2.04681e-05, No Iterations 3
smoothSolver:  Solving for k, Initial residual = 0.00445779, Final residual = 0.000243701, No Iterations 3
ExecutionTime = 23.59 s  ClockTime = 23 s

forceCoeffs forceCoeffs1 write:
    Cm    = 6.66885
    Cd    = 2.36862
    Cl    = 0.160141
    Cl(f) = 6.74892
    Cl(r) = -6.58878

Time = 38

smoothSolver:  Solving for Ux, Initial residual = 0.00455348, Final residual = 0.000298597, No Iterations 6
smoothSolver:  Solving for Uy, Initial residual = 0.0383465, Final residual = 0.00246818, No Iterations 6
smoothSolver:  Solving for Uz, Initial residual = 0.0327755, Final residual = 0.00309162, No Iterations 5
GAMG:  Solving for p, Initial residual = 0.0146452, Final residual = 6.46952e-05, No Iterations 4
time step continuity errors : sum local = 0.000256983, global = 2.16268e-05, cumulative = 0.000851458
smoothSolver:  Solving for omega, Initial residual = 0.000312683, Final residual = 1.92912e-05, No Iterations 3
smoothSolver:  Solving for k, Initial residual = 0.00411442, Final residual = 0.00022592, No Iterations 3
ExecutionTime = 24.17 s  ClockTime = 24 s

forceCoeffs forceCoeffs1 write:
    Cm    = 6.63561
    Cd    = 2.35862
    Cl    = 0.163274
    Cl(f) = 6.71725
    Cl(r) = -6.55397

Time = 39

smoothSolver:  Solving for Ux, Initial residual = 0.00436213, Final residual = 0.000434917, No Iterations 5
smoothSolver:  Solving for Uy, Initial residual = 0.0374815, Final residual = 0.00361098, No Iterations 5
smoothSolver:  Solving for Uz, Initial residual = 0.0324694, Final residual = 0.00298137, No Iterations 5
GAMG:  Solving for p, Initial residual = 0.0145015, Final residual = 6.64868e-05, No Iterations 4
time step continuity errors : sum local = 0.000263695, global = 1.25997e-05, cumulative = 0.000864057
smoothSolver:  Solving for omega, Initial residual = 0.000298769, Final residual = 1.81823e-05, No Iterations 3
smoothSolver:  Solving for k, Initial residual = 0.00385538, Final residual = 0.000214617, No Iterations 3
ExecutionTime = 24.71 s  ClockTime = 24 s

forceCoeffs forceCoeffs1 write:
    Cm    = 6.60802
    Cd    = 2.35056
    Cl    = 0.166315
    Cl(f) = 6.69118
    Cl(r) = -6.52486

Time = 40

smoothSolver:  Solving for Ux, Initial residual = 0.00428029, Final residual = 0.000423281, No Iterations 5
smoothSolver:  Solving for Uy, Initial residual = 0.0367515, Final residual = 0.00341311, No Iterations 5
smoothSolver:  Solving for Uz, Initial residual = 0.0321741, Final residual = 0.00296193, No Iterations 5
GAMG:  Solving for p, Initial residual = 0.0143035, Final residual = 6.91981e-05, No Iterations 4
time step continuity errors : sum local = 0.000273248, global = 4.5948e-06, cumulative = 0.000868652
smoothSolver:  Solving for omega, Initial residual = 0.000280567, Final residual = 1.69825e-05, No Iterations 3
smoothSolver:  Solving for k, Initial residual = 0.00363204, Final residual = 0.000203363, No Iterations 3
ExecutionTime = 25.28 s  ClockTime = 25 s

forceCoeffs forceCoeffs1 write:
    Cm    = 6.58526
    Cd    = 2.34404
    Cl    = 0.168835
    Cl(f) = 6.66968
    Cl(r) = -6.50084

Time = 41

smoothSolver:  Solving for Ux, Initial residual = 0.00420692, Final residual = 0.000418532, No Iterations 5
smoothSolver:  Solving for Uy, Initial residual = 0.0362385, Final residual = 0.00330344, No Iterations 5
smoothSolver:  Solving for Uz, Initial residual = 0.0321371, Final residual = 0.00299414, No Iterations 5
GAMG:  Solving for p, Initial residual = 0.0140831, Final residual = 6.94379e-05, No Iterations 4
time step continuity errors : sum local = 0.000272742, global = -3.76002e-06, cumulative = 0.000864892
smoothSolver:  Solving for omega, Initial residual = 0.000259896, Final residual = 1.56874e-05, No Iterations 3
smoothSolver:  Solving for k, Initial residual = 0.00334502, Final residual = 0.000187803, No Iterations 3
ExecutionTime = 25.83 s  ClockTime = 26 s

forceCoeffs forceCoeffs1 write:
    Cm    = 6.56651
    Cd    = 2.33821
    Cl    = 0.168977
    Cl(f) = 6.651
    Cl(r) = -6.48202

Time = 42

smoothSolver:  Solving for Ux, Initial residual = 0.00415665, Final residual = 0.000407326, No Iterations 5
smoothSolver:  Solving for Uy, Initial residual = 0.0359931, Final residual = 0.00320687, No Iterations 5
smoothSolver:  Solving for Uz, Initial residual = 0.0321432, Final residual = 0.00300718, No Iterations 5
GAMG:  Solving for p, Initial residual = 0.0138679, Final residual = 6.63393e-05, No Iterations 4
time step continuity errors : sum local = 0.000259277, global = -4.59481e-06, cumulative = 0.000860297
smoothSolver:  Solving for omega, Initial residual = 0.000242747, Final residual = 1.47417e-05, No Iterations 3
smoothSolver:  Solving for k, Initial residual = 0.0030819, Final residual = 0.000174647, No Iterations 3
ExecutionTime = 26.39 s  ClockTime = 26 s

forceCoeffs forceCoeffs1 write:
    Cm    = 6.55503
    Cd    = 2.33342
    Cl    = 0.164395
    Cl(f) = 6.63723
    Cl(r) = -6.47283

Time = 43

smoothSolver:  Solving for Ux, Initial residual = 0.00405782, Final residual = 0.000392557, No Iterations 5
smoothSolver:  Solving for Uy, Initial residual = 0.0353975, Final residual = 0.0031155, No Iterations 5
smoothSolver:  Solving for Uz, Initial residual = 0.0317314, Final residual = 0.00293243, No Iterations 5
GAMG:  Solving for p, Initial residual = 0.0134336, Final residual = 6.25139e-05, No Iterations 4
time step continuity errors : sum local = 0.000243253, global = -1.55564e-06, cumulative = 0.000858742
smoothSolver:  Solving for omega, Initial residual = 0.000229705, Final residual = 1.42376e-05, No Iterations 3
smoothSolver:  Solving for k, Initial residual = 0.0028726, Final residual = 0.000164787, No Iterations 3
ExecutionTime = 26.94 s  ClockTime = 27 s

forceCoeffs forceCoeffs1 write:
    Cm    = 6.55185
    Cd    = 2.32933
    Cl    = 0.152859
    Cl(f) = 6.62828
    Cl(r) = -6.47542

Time = 44

smoothSolver:  Solving for Ux, Initial residual = 0.00388256, Final residual = 0.000378432, No Iterations 5
smoothSolver:  Solving for Uy, Initial residual = 0.03386, Final residual = 0.00290379, No Iterations 5
smoothSolver:  Solving for Uz, Initial residual = 0.0306763, Final residual = 0.00273817, No Iterations 5
GAMG:  Solving for p, Initial residual = 0.0127861, Final residual = 6.21434e-05, No Iterations 4
time step continuity errors : sum local = 0.000240753, global = 5.70098e-06, cumulative = 0.000864443
smoothSolver:  Solving for omega, Initial residual = 0.000219907, Final residual = 1.38869e-05, No Iterations 3
smoothSolver:  Solving for k, Initial residual = 0.00275919, Final residual = 0.000157629, No Iterations 3
ExecutionTime = 27.51 s  ClockTime = 27 s

forceCoeffs forceCoeffs1 write:
    Cm    = 6.5575
    Cd    = 2.32588
    Cl    = 0.133665
    Cl(f) = 6.62434
    Cl(r) = -6.49067

Time = 45

smoothSolver:  Solving for Ux, Initial residual = 0.00369272, Final residual = 0.000357385, No Iterations 5
smoothSolver:  Solving for Uy, Initial residual = 0.0321166, Final residual = 0.00262129, No Iterations 5
smoothSolver:  Solving for Uz, Initial residual = 0.0292787, Final residual = 0.00256522, No Iterations 5
GAMG:  Solving for p, Initial residual = 0.0121065, Final residual = 6.53419e-05, No Iterations 4
time step continuity errors : sum local = 0.000252298, global = 1.23039e-05, cumulative = 0.000876747
smoothSolver:  Solving for omega, Initial residual = 0.000212833, Final residual = 1.35084e-05, No Iterations 3
smoothSolver:  Solving for k, Initial residual = 0.00266235, Final residual = 0.000148501, No Iterations 3
ExecutionTime = 28.05 s  ClockTime = 28 s

forceCoeffs forceCoeffs1 write:
    Cm    = 6.57076
    Cd    = 2.32307
    Cl    = 0.108053
    Cl(f) = 6.62479
    Cl(r) = -6.51673

Time = 46

smoothSolver:  Solving for Ux, Initial residual = 0.00358041, Final residual = 0.000354017, No Iterations 5
smoothSolver:  Solving for Uy, Initial residual = 0.0308469, Final residual = 0.00254251, No Iterations 5
smoothSolver:  Solving for Uz, Initial residual = 0.0281312, Final residual = 0.00248458, No Iterations 5
GAMG:  Solving for p, Initial residual = 0.0114802, Final residual = 6.97146e-05, No Iterations 4
time step continuity errors : sum local = 0.000268599, global = 1.66924e-05, cumulative = 0.000893439
smoothSolver:  Solving for omega, Initial residual = 0.00020705, Final residual = 1.32178e-05, No Iterations 3
smoothSolver:  Solving for k, Initial residual = 0.00253955, Final residual = 0.000141314, No Iterations 3
ExecutionTime = 28.63 s  ClockTime = 28 s

forceCoeffs forceCoeffs1 write:
    Cm    = 6.58896
    Cd    = 2.32066
    Cl    = 0.0781486
    Cl(f) = 6.62804
    Cl(r) = -6.54989

Time = 47

smoothSolver:  Solving for Ux, Initial residual = 0.00348267, Final residual = 0.000229741, No Iterations 6
smoothSolver:  Solving for Uy, Initial residual = 0.0296821, Final residual = 0.00251067, No Iterations 5
smoothSolver:  Solving for Uz, Initial residual = 0.0275201, Final residual = 0.00245322, No Iterations 5
GAMG:  Solving for p, Initial residual = 0.0108693, Final residual = 7.18284e-05, No Iterations 4
time step continuity errors : sum local = 0.000276341, global = 1.801e-05, cumulative = 0.000911449
smoothSolver:  Solving for omega, Initial residual = 0.000202582, Final residual = 1.30806e-05, No Iterations 3
smoothSolver:  Solving for k, Initial residual = 0.00237832, Final residual = 0.000134623, No Iterations 3
ExecutionTime = 29.19 s  ClockTime = 29 s

forceCoeffs forceCoeffs1 write:
    Cm    = 6.61082
    Cd    = 2.31853
    Cl    = 0.0449084
    Cl(f) = 6.63328
    Cl(r) = -6.58837

Time = 48

smoothSolver:  Solving for Ux, Initial residual = 0.00335143, Final residual = 0.000230265, No Iterations 6
smoothSolver:  Solving for Uy, Initial residual = 0.0283576, Final residual = 0.00247933, No Iterations 5
smoothSolver:  Solving for Uz, Initial residual = 0.0269013, Final residual = 0.0023926, No Iterations 5
GAMG:  Solving for p, Initial residual = 0.0102828, Final residual = 6.85223e-05, No Iterations 4
time step continuity errors : sum local = 0.000263415, global = 1.26283e-05, cumulative = 0.000924077
smoothSolver:  Solving for omega, Initial residual = 0.000196977, Final residual = 1.28297e-05, No Iterations 3
smoothSolver:  Solving for k, Initial residual = 0.0022332, Final residual = 0.000129578, No Iterations 3
ExecutionTime = 29.77 s  ClockTime = 29 s

forceCoeffs forceCoeffs1 write:
    Cm    = 6.63119
    Cd    = 2.31591
    Cl    = 0.0116494
    Cl(f) = 6.63702
    Cl(r) = -6.62537

Time = 49

smoothSolver:  Solving for Ux, Initial residual = 0.00317126, Final residual = 0.000222583, No Iterations 6
smoothSolver:  Solving for Uy, Initial residual = 0.0269374, Final residual = 0.00236954, No Iterations 5
smoothSolver:  Solving for Uz, Initial residual = 0.0257719, Final residual = 0.00232253, No Iterations 5
GAMG:  Solving for p, Initial residual = 0.0098586, Final residual = 6.2234e-05, No Iterations 4
time step continuity errors : sum local = 0.000239008, global = 3.42935e-06, cumulative = 0.000927507
smoothSolver:  Solving for omega, Initial residual = 0.000189375, Final residual = 1.24178e-05, No Iterations 3
smoothSolver:  Solving for k, Initial residual = 0.00210485, Final residual = 0.000124108, No Iterations 3
ExecutionTime = 30.32 s  ClockTime = 30 s

forceCoeffs forceCoeffs1 write:
    Cm    = 6.6501
    Cd    = 2.31321
    Cl    = -0.0202474
    Cl(f) = 6.63998
    Cl(r) = -6.66023

Time = 50

smoothSolver:  Solving for Ux, Initial residual = 0.00300329, Final residual = 0.000212282, No Iterations 6
smoothSolver:  Solving for Uy, Initial residual = 0.025649, Final residual = 0.00225017, No Iterations 5
smoothSolver:  Solving for Uz, Initial residual = 0.0245509, Final residual = 0.00224177, No Iterations 5
GAMG:  Solving for p, Initial residual = 0.00960119, Final residual = 5.61431e-05, No Iterations 4
time step continuity errors : sum local = 0.000215328, global = -4.53089e-06, cumulative = 0.000922976
smoothSolver:  Solving for omega, Initial residual = 0.000183053, Final residual = 1.19864e-05, No Iterations 3
smoothSolver:  Solving for k, Initial residual = 0.00197725, Final residual = 0.000117952, No Iterations 3
ExecutionTime = 30.92 s  ClockTime = 31 s

forceCoeffs forceCoeffs1 write:
    Cm    = 6.66815
    Cd    = 2.31081
    Cl    = -0.0500719
    Cl(f) = 6.64311
    Cl(r) = -6.69318

Time = 51

smoothSolver:  Solving for Ux, Initial residual = 0.00285182, Final residual = 0.000203399, No Iterations 6
smoothSolver:  Solving for Uy, Initial residual = 0.0243144, Final residual = 0.00214919, No Iterations 5
smoothSolver:  Solving for Uz, Initial residual = 0.0232578, Final residual = 0.00216088, No Iterations 5
GAMG:  Solving for p, Initial residual = 0.00941416, Final residual = 5.16144e-05, No Iterations 4
time step continuity errors : sum local = 0.000197618, global = -7.68004e-06, cumulative = 0.000915296
smoothSolver:  Solving for omega, Initial residual = 0.000177059, Final residual = 1.15669e-05, No Iterations 3
smoothSolver:  Solving for k, Initial residual = 0.0018466, Final residual = 0.00011033, No Iterations 3
ExecutionTime = 31.47 s  ClockTime = 31 s

forceCoeffs forceCoeffs1 write:
    Cm    = 6.68555
    Cd    = 2.30884
    Cl    = -0.0775983
    Cl(f) = 6.64675
    Cl(r) = -6.72435

Time = 52

smoothSolver:  Solving for Ux, Initial residual = 0.00271591, Final residual = 0.000196532, No Iterations 6
smoothSolver:  Solving for Uy, Initial residual = 0.0230685, Final residual = 0.00207019, No Iterations 5
smoothSolver:  Solving for Uz, Initial residual = 0.0222143, Final residual = 0.00209023, No Iterations 5
GAMG:  Solving for p, Initial residual = 0.0092478, Final residual = 4.86527e-05, No Iterations 4
time step continuity errors : sum local = 0.000185925, global = -7.15105e-06, cumulative = 0.000908145
smoothSolver:  Solving for omega, Initial residual = 0.000172428, Final residual = 1.12466e-05, No Iterations 3
smoothSolver:  Solving for k, Initial residual = 0.00176209, Final residual = 0.000104351, No Iterations 3
ExecutionTime = 32.03 s  ClockTime = 32 s

forceCoeffs forceCoeffs1 write:
    Cm    = 6.70181
    Cd    = 2.3071
    Cl    = -0.102945
    Cl(f) = 6.65034
    Cl(r) = -6.75329

Time = 53

smoothSolver:  Solving for Ux, Initial residual = 0.00260999, Final residual = 0.000189099, No Iterations 6
smoothSolver:  Solving for Uy, Initial residual = 0.0220569, Final residual = 0.00200997, No Iterations 5
smoothSolver:  Solving for Uz, Initial residual = 0.0214311, Final residual = 0.00203806, No Iterations 5
GAMG:  Solving for p, Initial residual = 0.00913612, Final residual = 4.62787e-05, No Iterations 4
time step continuity errors : sum local = 0.000176523, global = -3.79388e-06, cumulative = 0.000904351
smoothSolver:  Solving for omega, Initial residual = 0.000167346, Final residual = 1.09813e-05, No Iterations 3
smoothSolver:  Solving for k, Initial residual = 0.00169319, Final residual = 0.000100377, No Iterations 3
ExecutionTime = 32.58 s  ClockTime = 32 s

forceCoeffs forceCoeffs1 write:
    Cm    = 6.71615
    Cd    = 2.30528
    Cl    = -0.126226
    Cl(f) = 6.65304
    Cl(r) = -6.77926

Time = 54

smoothSolver:  Solving for Ux, Initial residual = 0.00252299, Final residual = 0.0001814, No Iterations 6
smoothSolver:  Solving for Uy, Initial residual = 0.0212803, Final residual = 0.00195263, No Iterations 5
smoothSolver:  Solving for Uz, Initial residual = 0.0208621, Final residual = 0.00200324, No Iterations 5
GAMG:  Solving for p, Initial residual = 0.00903538, Final residual = 4.45497e-05, No Iterations 4
time step continuity errors : sum local = 0.000169695, global = 8.34752e-07, cumulative = 0.000905186
smoothSolver:  Solving for omega, Initial residual = 0.000163785, Final residual = 1.08195e-05, No Iterations 3
smoothSolver:  Solving for k, Initial residual = 0.00164564, Final residual = 9.73119e-05, No Iterations 3
ExecutionTime = 33.14 s  ClockTime = 33 s

forceCoeffs forceCoeffs1 write:
    Cm    = 6.72706
    Cd    = 2.30291
    Cl    = -0.147408
    Cl(f) = 6.65335
    Cl(r) = -6.80076

Time = 55

smoothSolver:  Solving for Ux, Initial residual = 0.0024513, Final residual = 0.000174791, No Iterations 6
smoothSolver:  Solving for Uy, Initial residual = 0.0207641, Final residual = 0.0018917, No Iterations 5
smoothSolver:  Solving for Uz, Initial residual = 0.0203886, Final residual = 0.00196516, No Iterations 5
GAMG:  Solving for p, Initial residual = 0.00891649, Final residual = 4.27656e-05, No Iterations 4
time step continuity errors : sum local = 0.000162752, global = 5.32546e-06, cumulative = 0.000910511
smoothSolver:  Solving for omega, Initial residual = 0.00016169, Final residual = 1.07215e-05, No Iterations 3
smoothSolver:  Solving for k, Initial residual = 0.0016062, Final residual = 9.4711e-05, No Iterations 3
ExecutionTime = 33.7 s  ClockTime = 33 s

forceCoeffs forceCoeffs1 write:
    Cm    = 6.73443
    Cd    = 2.3
    Cl    = -0.166449
    Cl(f) = 6.65121
    Cl(r) = -6.81766

Time = 56

smoothSolver:  Solving for Ux, Initial residual = 0.00238281, Final residual = 0.000169328, No Iterations 6
smoothSolver:  Solving for Uy, Initial residual = 0.0203256, Final residual = 0.00181798, No Iterations 5
smoothSolver:  Solving for Uz, Initial residual = 0.0199459, Final residual = 0.00190841, No Iterations 5
GAMG:  Solving for p, Initial residual = 0.0088164, Final residual = 4.08018e-05, No Iterations 4
time step continuity errors : sum local = 0.000155235, global = 7.70807e-06, cumulative = 0.000918219
smoothSolver:  Solving for omega, Initial residual = 0.000161587, Final residual = 1.06511e-05, No Iterations 3
smoothSolver:  Solving for k, Initial residual = 0.00157879, Final residual = 9.25133e-05, No Iterations 3
ExecutionTime = 34.26 s  ClockTime = 34 s

forceCoeffs forceCoeffs1 write:
    Cm    = 6.73892
    Cd    = 2.29674
    Cl    = -0.183403
    Cl(f) = 6.64722
    Cl(r) = -6.83062

Time = 57

smoothSolver:  Solving for Ux, Initial residual = 0.00233277, Final residual = 0.000164588, No Iterations 6
smoothSolver:  Solving for Uy, Initial residual = 0.0199705, Final residual = 0.00175739, No Iterations 5
smoothSolver:  Solving for Uz, Initial residual = 0.0195046, Final residual = 0.00185646, No Iterations 5
GAMG:  Solving for p, Initial residual = 0.00874559, Final residual = 3.91528e-05, No Iterations 4
time step continuity errors : sum local = 0.000148997, global = 8.00449e-06, cumulative = 0.000926224
smoothSolver:  Solving for omega, Initial residual = 0.00015977, Final residual = 1.0479e-05, No Iterations 3
smoothSolver:  Solving for k, Initial residual = 0.00157331, Final residual = 9.16336e-05, No Iterations 3
ExecutionTime = 34.81 s  ClockTime = 35 s

forceCoeffs forceCoeffs1 write:
    Cm    = 6.74217
    Cd    = 2.29365
    Cl    = -0.198397
    Cl(f) = 6.64297
    Cl(r) = -6.84137

Time = 58

smoothSolver:  Solving for Ux, Initial residual = 0.00228796, Final residual = 0.00016065, No Iterations 6
smoothSolver:  Solving for Uy, Initial residual = 0.0195969, Final residual = 0.00170122, No Iterations 5
smoothSolver:  Solving for Uz, Initial residual = 0.0192115, Final residual = 0.00180497, No Iterations 5
GAMG:  Solving for p, Initial residual = 0.00864706, Final residual = 3.83972e-05, No Iterations 4
time step continuity errors : sum local = 0.000146241, global = 6.87747e-06, cumulative = 0.000933101
smoothSolver:  Solving for omega, Initial residual = 0.000157673, Final residual = 1.03349e-05, No Iterations 3
smoothSolver:  Solving for k, Initial residual = 0.00158208, Final residual = 9.26209e-05, No Iterations 3
ExecutionTime = 35.38 s  ClockTime = 35 s

forceCoeffs forceCoeffs1 write:
    Cm    = 6.74454
    Cd    = 2.29075
    Cl    = -0.211801
    Cl(f) = 6.63864
    Cl(r) = -6.85044

Time = 59

smoothSolver:  Solving for Ux, Initial residual = 0.00224778, Final residual = 0.000158392, No Iterations 6
smoothSolver:  Solving for Uy, Initial residual = 0.0193606, Final residual = 0.00165001, No Iterations 5
smoothSolver:  Solving for Uz, Initial residual = 0.0189682, Final residual = 0.00176512, No Iterations 5
GAMG:  Solving for p, Initial residual = 0.00851211, Final residual = 3.81698e-05, No Iterations 4
time step continuity errors : sum local = 0.000145571, global = 5.71409e-06, cumulative = 0.000938815
smoothSolver:  Solving for omega, Initial residual = 0.000154866, Final residual = 1.01391e-05, No Iterations 3
smoothSolver:  Solving for k, Initial residual = 0.00158932, Final residual = 9.5007e-05, No Iterations 3
ExecutionTime = 35.92 s  ClockTime = 36 s

forceCoeffs forceCoeffs1 write:
    Cm    = 6.74639
    Cd    = 2.28808
    Cl    = -0.223796
    Cl(f) = 6.63449
    Cl(r) = -6.85829

Time = 60

smoothSolver:  Solving for Ux, Initial residual = 0.00223038, Final residual = 0.000159129, No Iterations 6
smoothSolver:  Solving for Uy, Initial residual = 0.0192032, Final residual = 0.00161401, No Iterations 5
smoothSolver:  Solving for Uz, Initial residual = 0.0187523, Final residual = 0.00174938, No Iterations 5
GAMG:  Solving for p, Initial residual = 0.00836054, Final residual = 3.80712e-05, No Iterations 4
time step continuity errors : sum local = 0.000145496, global = 4.35207e-06, cumulative = 0.000943167
smoothSolver:  Solving for omega, Initial residual = 0.000151627, Final residual = 9.87633e-06, No Iterations 3
smoothSolver:  Solving for k, Initial residual = 0.00161103, Final residual = 9.70574e-05, No Iterations 3
ExecutionTime = 36.48 s  ClockTime = 36 s

forceCoeffs forceCoeffs1 write:
    Cm    = 6.74722
    Cd    = 2.28547
    Cl    = -0.234361
    Cl(f) = 6.63004
    Cl(r) = -6.8644

Time = 61

smoothSolver:  Solving for Ux, Initial residual = 0.00222295, Final residual = 0.000159416, No Iterations 6
smoothSolver:  Solving for Uy, Initial residual = 0.0191527, Final residual = 0.00160046, No Iterations 5
smoothSolver:  Solving for Uz, Initial residual = 0.0187344, Final residual = 0.00174972, No Iterations 5
GAMG:  Solving for p, Initial residual = 0.00823742, Final residual = 3.71904e-05, No Iterations 4
time step continuity errors : sum local = 0.000142503, global = 3.52941e-06, cumulative = 0.000946697
smoothSolver:  Solving for omega, Initial residual = 0.000147353, Final residual = 9.50339e-06, No Iterations 3
smoothSolver:  Solving for k, Initial residual = 0.00162864, Final residual = 9.85415e-05, No Iterations 3
ExecutionTime = 37.03 s  ClockTime = 37 s

forceCoeffs forceCoeffs1 write:
    Cm    = 6.74602
    Cd    = 2.2826
    Cl    = -0.243425
    Cl(f) = 6.6243
    Cl(r) = -6.86773

Time = 62

smoothSolver:  Solving for Ux, Initial residual = 0.00224447, Final residual = 0.000159075, No Iterations 6
smoothSolver:  Solving for Uy, Initial residual = 0.0192027, Final residual = 0.00161026, No Iterations 5
smoothSolver:  Solving for Uz, Initial residual = 0.0187297, Final residual = 0.00175887, No Iterations 5
GAMG:  Solving for p, Initial residual = 0.0081244, Final residual = 3.62435e-05, No Iterations 4
time step continuity errors : sum local = 0.000139322, global = 2.75862e-06, cumulative = 0.000949455
smoothSolver:  Solving for omega, Initial residual = 0.000142459, Final residual = 9.0662e-06, No Iterations 3
smoothSolver:  Solving for k, Initial residual = 0.00164625, Final residual = 9.87266e-05, No Iterations 3
ExecutionTime = 37.6 s  ClockTime = 37 s

forceCoeffs forceCoeffs1 write:
    Cm    = 6.74202
    Cd    = 2.27931
    Cl    = -0.250718
    Cl(f) = 6.61666
    Cl(r) = -6.86738

Time = 63

smoothSolver:  Solving for Ux, Initial residual = 0.00227903, Final residual = 0.000158681, No Iterations 6
smoothSolver:  Solving for Uy, Initial residual = 0.0192087, Final residual = 0.00163111, No Iterations 5
smoothSolver:  Solving for Uz, Initial residual = 0.0187217, Final residual = 0.00177657, No Iterations 5
GAMG:  Solving for p, Initial residual = 0.00800819, Final residual = 3.55902e-05, No Iterations 4
time step continuity errors : sum local = 0.000137276, global = 2.40983e-06, cumulative = 0.000951865
smoothSolver:  Solving for omega, Initial residual = 0.000136694, Final residual = 8.63695e-06, No Iterations 3
smoothSolver:  Solving for k, Initial residual = 0.00163387, Final residual = 9.72812e-05, No Iterations 3
ExecutionTime = 38.15 s  ClockTime = 38 s

forceCoeffs forceCoeffs1 write:
    Cm    = 6.73535
    Cd    = 2.27566
    Cl    = -0.256186
    Cl(f) = 6.60726
    Cl(r) = -6.86345

Time = 64

smoothSolver:  Solving for Ux, Initial residual = 0.00231106, Final residual = 0.00016003, No Iterations 6
smoothSolver:  Solving for Uy, Initial residual = 0.0191441, Final residual = 0.00165903, No Iterations 5
smoothSolver:  Solving for Uz, Initial residual = 0.0186885, Final residual = 0.00181202, No Iterations 5
GAMG:  Solving for p, Initial residual = 0.0078933, Final residual = 3.51628e-05, No Iterations 4
time step continuity errors : sum local = 0.000136109, global = 1.5391e-06, cumulative = 0.000953404
smoothSolver:  Solving for omega, Initial residual = 0.000131269, Final residual = 8.26088e-06, No Iterations 3
smoothSolver:  Solving for k, Initial residual = 0.00162236, Final residual = 9.58288e-05, No Iterations 3
ExecutionTime = 38.72 s  ClockTime = 38 s

forceCoeffs forceCoeffs1 write:
    Cm    = 6.72687
    Cd    = 2.27183
    Cl    = -0.26002
    Cl(f) = 6.59686
    Cl(r) = -6.85688

Time = 65

smoothSolver:  Solving for Ux, Initial residual = 0.00233109, Final residual = 0.000159906, No Iterations 6
smoothSolver:  Solving for Uy, Initial residual = 0.018987, Final residual = 0.00169052, No Iterations 5
smoothSolver:  Solving for Uz, Initial residual = 0.0185817, Final residual = 0.00181594, No Iterations 5
GAMG:  Solving for p, Initial residual = 0.00774878, Final residual = 3.45387e-05, No Iterations 4
time step continuity errors : sum local = 0.000134165, global = 2.87358e-07, cumulative = 0.000953692
smoothSolver:  Solving for omega, Initial residual = 0.000126268, Final residual = 7.99019e-06, No Iterations 3
smoothSolver:  Solving for k, Initial residual = 0.00159785, Final residual = 9.4629e-05, No Iterations 3
ExecutionTime = 39.27 s  ClockTime = 39 s

forceCoeffs forceCoeffs1 write:
    Cm    = 6.71816
    Cd    = 2.2682
    Cl    = -0.262769
    Cl(f) = 6.58677
    Cl(r) = -6.84954

Time = 66

smoothSolver:  Solving for Ux, Initial residual = 0.00231726, Final residual = 0.000156595, No Iterations 6
smoothSolver:  Solving for Uy, Initial residual = 0.0187335, Final residual = 0.00170069, No Iterations 5
smoothSolver:  Solving for Uz, Initial residual = 0.0182678, Final residual = 0.00177685, No Iterations 5
GAMG:  Solving for p, Initial residual = 0.00756352, Final residual = 3.33711e-05, No Iterations 4
time step continuity errors : sum local = 0.000130062, global = -8.06974e-07, cumulative = 0.000952885
smoothSolver:  Solving for omega, Initial residual = 0.000122025, Final residual = 7.7416e-06, No Iterations 3
smoothSolver:  Solving for k, Initial residual = 0.00159863, Final residual = 9.40912e-05, No Iterations 3
ExecutionTime = 39.83 s  ClockTime = 40 s

forceCoeffs forceCoeffs1 write:
    Cm    = 6.71102
    Cd    = 2.26514
    Cl    = -0.26505
    Cl(f) = 6.5785
    Cl(r) = -6.84355

Time = 67

smoothSolver:  Solving for Ux, Initial residual = 0.00226548, Final residual = 0.000149875, No Iterations 6
smoothSolver:  Solving for Uy, Initial residual = 0.0181834, Final residual = 0.00166395, No Iterations 5
smoothSolver:  Solving for Uz, Initial residual = 0.0176851, Final residual = 0.00170139, No Iterations 5
GAMG:  Solving for p, Initial residual = 0.00735802, Final residual = 3.26851e-05, No Iterations 4
time step continuity errors : sum local = 0.000127789, global = -1.64861e-06, cumulative = 0.000951236
smoothSolver:  Solving for omega, Initial residual = 0.000117141, Final residual = 7.56362e-06, No Iterations 3
smoothSolver:  Solving for k, Initial residual = 0.00158146, Final residual = 9.4185e-05, No Iterations 3
ExecutionTime = 40.38 s  ClockTime = 40 s

forceCoeffs forceCoeffs1 write:
    Cm    = 6.70667
    Cd    = 2.26286
    Cl    = -0.267569
    Cl(f) = 6.57289
    Cl(r) = -6.84046

Time = 68

smoothSolver:  Solving for Ux, Initial residual = 0.00218482, Final residual = 0.0001404, No Iterations 6
smoothSolver:  Solving for Uy, Initial residual = 0.0174097, Final residual = 0.00157276, No Iterations 5
smoothSolver:  Solving for Uz, Initial residual = 0.0169445, Final residual = 0.00159183, No Iterations 5
GAMG:  Solving for p, Initial residual = 0.00713515, Final residual = 3.17971e-05, No Iterations 4
time step continuity errors : sum local = 0.000124661, global = -1.84508e-06, cumulative = 0.000949391
smoothSolver:  Solving for omega, Initial residual = 0.000113701, Final residual = 7.43881e-06, No Iterations 3
smoothSolver:  Solving for k, Initial residual = 0.00155981, Final residual = 9.33806e-05, No Iterations 3
ExecutionTime = 40.95 s  ClockTime = 41 s

forceCoeffs forceCoeffs1 write:
    Cm    = 6.70492
    Cd    = 2.26115
    Cl    = -0.270754
    Cl(f) = 6.56955
    Cl(r) = -6.8403

Time = 69

smoothSolver:  Solving for Ux, Initial residual = 0.00207057, Final residual = 0.000205816, No Iterations 5
smoothSolver:  Solving for Uy, Initial residual = 0.0165156, Final residual = 0.00143149, No Iterations 5
smoothSolver:  Solving for Uz, Initial residual = 0.0161474, Final residual = 0.0014492, No Iterations 5
GAMG:  Solving for p, Initial residual = 0.00688147, Final residual = 3.01347e-05, No Iterations 4
time step continuity errors : sum local = 0.000118409, global = -1.07536e-06, cumulative = 0.000948316
smoothSolver:  Solving for omega, Initial residual = 0.000109369, Final residual = 7.24732e-06, No Iterations 3
smoothSolver:  Solving for k, Initial residual = 0.00152537, Final residual = 9.26019e-05, No Iterations 3
ExecutionTime = 41.5 s  ClockTime = 41 s

forceCoeffs forceCoeffs1 write:
    Cm    = 6.70461
    Cd    = 2.25966
    Cl    = -0.274506
    Cl(f) = 6.56736
    Cl(r) = -6.84187

Time = 70

smoothSolver:  Solving for Ux, Initial residual = 0.00195718, Final residual = 0.00018796, No Iterations 5
smoothSolver:  Solving for Uy, Initial residual = 0.0157414, Final residual = 0.00126741, No Iterations 5
smoothSolver:  Solving for Uz, Initial residual = 0.0152851, Final residual = 0.00129027, No Iterations 5
GAMG:  Solving for p, Initial residual = 0.00658996, Final residual = 2.82835e-05, No Iterations 4
time step continuity errors : sum local = 0.000111351, global = 3.55657e-07, cumulative = 0.000948671
smoothSolver:  Solving for omega, Initial residual = 0.000105264, Final residual = 7.00756e-06, No Iterations 3
smoothSolver:  Solving for k, Initial residual = 0.00148638, Final residual = 9.0754e-05, No Iterations 3
ExecutionTime = 42.06 s  ClockTime = 42 s

forceCoeffs forceCoeffs1 write:
    Cm    = 6.70575
    Cd    = 2.25841
    Cl    = -0.278841
    Cl(f) = 6.56633
    Cl(r) = -6.84518

Time = 71

smoothSolver:  Solving for Ux, Initial residual = 0.00182741, Final residual = 0.00017251, No Iterations 5
smoothSolver:  Solving for Uy, Initial residual = 0.01493, Final residual = 0.00111679, No Iterations 5
smoothSolver:  Solving for Uz, Initial residual = 0.0144546, Final residual = 0.00115592, No Iterations 5
GAMG:  Solving for p, Initial residual = 0.00630632, Final residual = 2.67497e-05, No Iterations 4
time step continuity errors : sum local = 0.00010549, global = 9.82384e-07, cumulative = 0.000949654
smoothSolver:  Solving for omega, Initial residual = 0.000100744, Final residual = 6.77478e-06, No Iterations 3
smoothSolver:  Solving for k, Initial residual = 0.00143045, Final residual = 8.81466e-05, No Iterations 3
ExecutionTime = 42.61 s  ClockTime = 42 s

forceCoeffs forceCoeffs1 write:
    Cm    = 6.7081
    Cd    = 2.25752
    Cl    = -0.283217
    Cl(f) = 6.56649
    Cl(r) = -6.84971

Time = 72

smoothSolver:  Solving for Ux, Initial residual = 0.00171209, Final residual = 0.000159633, No Iterations 5
smoothSolver:  Solving for Uy, Initial residual = 0.0141103, Final residual = 0.0010356, No Iterations 5
smoothSolver:  Solving for Uz, Initial residual = 0.0136027, Final residual = 0.00105862, No Iterations 5
GAMG:  Solving for p, Initial residual = 0.00605013, Final residual = 5.87842e-05, No Iterations 3
time step continuity errors : sum local = 0.00023219, global = -4.09975e-06, cumulative = 0.000945554
smoothSolver:  Solving for omega, Initial residual = 9.84749e-05, Final residual = 6.58055e-06, No Iterations 3
smoothSolver:  Solving for k, Initial residual = 0.00137817, Final residual = 8.50683e-05, No Iterations 3
ExecutionTime = 43.16 s  ClockTime = 43 s

forceCoeffs forceCoeffs1 write:
    Cm    = 6.71084
    Cd    = 2.25718
    Cl    = -0.286184
    Cl(f) = 6.56775
    Cl(r) = -6.85393

Time = 73

smoothSolver:  Solving for Ux, Initial residual = 0.0016001, Final residual = 0.000148152, No Iterations 5
smoothSolver:  Solving for Uy, Initial residual = 0.0133703, Final residual = 0.000970155, No Iterations 5
smoothSolver:  Solving for Uz, Initial residual = 0.0127372, Final residual = 0.000974543, No Iterations 5
GAMG:  Solving for p, Initial residual = 0.00581665, Final residual = 5.70627e-05, No Iterations 3
time step continuity errors : sum local = 0.000225709, global = -4.61825e-06, cumulative = 0.000940936
smoothSolver:  Solving for omega, Initial residual = 9.63212e-05, Final residual = 6.43657e-06, No Iterations 3
smoothSolver:  Solving for k, Initial residual = 0.00132416, Final residual = 8.10535e-05, No Iterations 3
ExecutionTime = 43.69 s  ClockTime = 43 s

forceCoeffs forceCoeffs1 write:
    Cm    = 6.71433
    Cd    = 2.25723
    Cl    = -0.288557
    Cl(f) = 6.57005
    Cl(r) = -6.85861

Time = 74

smoothSolver:  Solving for Ux, Initial residual = 0.00151233, Final residual = 0.000137703, No Iterations 5
smoothSolver:  Solving for Uy, Initial residual = 0.012754, Final residual = 0.000922049, No Iterations 5
smoothSolver:  Solving for Uz, Initial residual = 0.0120894, Final residual = 0.000919297, No Iterations 5
GAMG:  Solving for p, Initial residual = 0.00560948, Final residual = 5.29507e-05, No Iterations 3
time step continuity errors : sum local = 0.000209748, global = -5.09642e-06, cumulative = 0.000935839
smoothSolver:  Solving for omega, Initial residual = 9.48295e-05, Final residual = 6.30148e-06, No Iterations 3
smoothSolver:  Solving for k, Initial residual = 0.00127353, Final residual = 7.70448e-05, No Iterations 3
ExecutionTime = 44.25 s  ClockTime = 44 s

forceCoeffs forceCoeffs1 write:
    Cm    = 6.7176
    Cd    = 2.25764
    Cl    = -0.289396
    Cl(f) = 6.57291
    Cl(r) = -6.8623

Time = 75

smoothSolver:  Solving for Ux, Initial residual = 0.00142916, Final residual = 0.000127224, No Iterations 5
smoothSolver:  Solving for Uy, Initial residual = 0.0122356, Final residual = 0.000880346, No Iterations 5
smoothSolver:  Solving for Uz, Initial residual = 0.0114778, Final residual = 0.000871343, No Iterations 5
GAMG:  Solving for p, Initial residual = 0.0054175, Final residual = 5.04228e-05, No Iterations 3
time step continuity errors : sum local = 0.000199992, global = -4.44012e-06, cumulative = 0.000931399
smoothSolver:  Solving for omega, Initial residual = 9.24715e-05, Final residual = 6.22157e-06, No Iterations 3
smoothSolver:  Solving for k, Initial residual = 0.00122212, Final residual = 7.33568e-05, No Iterations 3
ExecutionTime = 44.77 s  ClockTime = 45 s

forceCoeffs forceCoeffs1 write:
    Cm    = 6.72032
    Cd    = 2.25832
    Cl    = -0.28864
    Cl(f) = 6.576
    Cl(r) = -6.86464

Time = 76

smoothSolver:  Solving for Ux, Initial residual = 0.0013557, Final residual = 0.000119099, No Iterations 5
smoothSolver:  Solving for Uy, Initial residual = 0.0118036, Final residual = 0.000852601, No Iterations 5
smoothSolver:  Solving for Uz, Initial residual = 0.0109779, Final residual = 0.000844514, No Iterations 5
GAMG:  Solving for p, Initial residual = 0.00522541, Final residual = 5.02863e-05, No Iterations 3
time step continuity errors : sum local = 0.00019969, global = -2.37322e-06, cumulative = 0.000929026
smoothSolver:  Solving for omega, Initial residual = 9.1502e-05, Final residual = 6.17048e-06, No Iterations 3
smoothSolver:  Solving for k, Initial residual = 0.0011702, Final residual = 7.00287e-05, No Iterations 3
ExecutionTime = 45.33 s  ClockTime = 45 s

forceCoeffs forceCoeffs1 write:
    Cm    = 6.7222
    Cd    = 2.25914
    Cl    = -0.286388
    Cl(f) = 6.579
    Cl(r) = -6.86539

Time = 77

smoothSolver:  Solving for Ux, Initial residual = 0.00129646, Final residual = 0.000115512, No Iterations 5
smoothSolver:  Solving for Uy, Initial residual = 0.0114563, Final residual = 0.000837072, No Iterations 5
smoothSolver:  Solving for Uz, Initial residual = 0.0106002, Final residual = 0.00083787, No Iterations 5
GAMG:  Solving for p, Initial residual = 0.00504315, Final residual = 2.1132e-05, No Iterations 4
time step continuity errors : sum local = 8.40048e-05, global = 6.00986e-07, cumulative = 0.000929627
smoothSolver:  Solving for omega, Initial residual = 9.12134e-05, Final residual = 6.21857e-06, No Iterations 3
smoothSolver:  Solving for k, Initial residual = 0.0011157, Final residual = 6.70898e-05, No Iterations 3
ExecutionTime = 45.88 s  ClockTime = 46 s

forceCoeffs forceCoeffs1 write:
    Cm    = 6.72324
    Cd    = 2.26003
    Cl    = -0.282622
    Cl(f) = 6.58193
    Cl(r) = -6.86455

Time = 78

smoothSolver:  Solving for Ux, Initial residual = 0.00126921, Final residual = 0.00011702, No Iterations 5
smoothSolver:  Solving for Uy, Initial residual = 0.0113086, Final residual = 0.000848065, No Iterations 5
smoothSolver:  Solving for Uz, Initial residual = 0.0104454, Final residual = 0.000859804, No Iterations 5
GAMG:  Solving for p, Initial residual = 0.00488323, Final residual = 2.07808e-05, No Iterations 4
time step continuity errors : sum local = 8.26776e-05, global = 2.63913e-06, cumulative = 0.000932266
smoothSolver:  Solving for omega, Initial residual = 9.15071e-05, Final residual = 6.23239e-06, No Iterations 3
smoothSolver:  Solving for k, Initial residual = 0.00106714, Final residual = 6.43283e-05, No Iterations 3
ExecutionTime = 46.45 s  ClockTime = 46 s

forceCoeffs forceCoeffs1 write:
    Cm    = 6.72463
    Cd    = 2.26123
    Cl    = -0.278223
    Cl(f) = 6.58552
    Cl(r) = -6.86374

Time = 79

smoothSolver:  Solving for Ux, Initial residual = 0.00125495, Final residual = 0.000119598, No Iterations 5
smoothSolver:  Solving for Uy, Initial residual = 0.0112179, Final residual = 0.000852053, No Iterations 5
smoothSolver:  Solving for Uz, Initial residual = 0.0102748, Final residual = 0.000868972, No Iterations 5
GAMG:  Solving for p, Initial residual = 0.00475234, Final residual = 2.1127e-05, No Iterations 4
time step continuity errors : sum local = 8.41146e-05, global = 2.48953e-06, cumulative = 0.000934755
smoothSolver:  Solving for omega, Initial residual = 9.26221e-05, Final residual = 6.33674e-06, No Iterations 3
smoothSolver:  Solving for k, Initial residual = 0.00103071, Final residual = 6.22491e-05, No Iterations 3
ExecutionTime = 47 s  ClockTime = 47 s

forceCoeffs forceCoeffs1 write:
    Cm    = 6.72552
    Cd    = 2.2625
    Cl    = -0.272999
    Cl(f) = 6.58902
    Cl(r) = -6.86202

Time = 80

smoothSolver:  Solving for Ux, Initial residual = 0.00125328, Final residual = 0.000123051, No Iterations 5
smoothSolver:  Solving for Uy, Initial residual = 0.0111433, Final residual = 0.00086494, No Iterations 5
smoothSolver:  Solving for Uz, Initial residual = 0.0101527, Final residual = 0.000879184, No Iterations 5
GAMG:  Solving for p, Initial residual = 0.00466884, Final residual = 2.1351e-05, No Iterations 4
time step continuity errors : sum local = 8.50619e-05, global = 1.97587e-06, cumulative = 0.000936731
smoothSolver:  Solving for omega, Initial residual = 9.42582e-05, Final residual = 6.36203e-06, No Iterations 3
smoothSolver:  Solving for k, Initial residual = 0.0010029, Final residual = 6.09704e-05, No Iterations 3
ExecutionTime = 47.58 s  ClockTime = 47 s

forceCoeffs forceCoeffs1 write:
    Cm    = 6.72587
    Cd    = 2.2638
    Cl    = -0.266963
    Cl(f) = 6.59239
    Cl(r) = -6.85935

Time = 81

smoothSolver:  Solving for Ux, Initial residual = 0.00125466, Final residual = 8.60162e-05, No Iterations 6
smoothSolver:  Solving for Uy, Initial residual = 0.0111005, Final residual = 0.000880004, No Iterations 5
smoothSolver:  Solving for Uz, Initial residual = 0.010061, Final residual = 0.000882161, No Iterations 5
GAMG:  Solving for p, Initial residual = 0.00462013, Final residual = 2.1367e-05, No Iterations 4
time step continuity errors : sum local = 8.51769e-05, global = 4.96062e-07, cumulative = 0.000937227
smoothSolver:  Solving for omega, Initial residual = 9.61982e-05, Final residual = 6.49394e-06, No Iterations 3
smoothSolver:  Solving for k, Initial residual = 0.000991882, Final residual = 6.03102e-05, No Iterations 3
ExecutionTime = 48.12 s  ClockTime = 48 s

forceCoeffs forceCoeffs1 write:
    Cm    = 6.72441
    Cd    = 2.26486
    Cl    = -0.259633
    Cl(f) = 6.5946
    Cl(r) = -6.85423

Time = 82

smoothSolver:  Solving for Ux, Initial residual = 0.00125873, Final residual = 8.90352e-05, No Iterations 6
smoothSolver:  Solving for Uy, Initial residual = 0.0111068, Final residual = 0.000900402, No Iterations 5
smoothSolver:  Solving for Uz, Initial residual = 0.0100556, Final residual = 0.000885974, No Iterations 5
GAMG:  Solving for p, Initial residual = 0.00460543, Final residual = 2.1264e-05, No Iterations 4
time step continuity errors : sum local = 8.48143e-05, global = -1.20305e-07, cumulative = 0.000937107
smoothSolver:  Solving for omega, Initial residual = 9.76119e-05, Final residual = 6.52471e-06, No Iterations 3
smoothSolver:  Solving for k, Initial residual = 0.000986786, Final residual = 5.97495e-05, No Iterations 3
ExecutionTime = 48.7 s  ClockTime = 48 s

forceCoeffs forceCoeffs1 write:
    Cm    = 6.72222
    Cd    = 2.266
    Cl    = -0.251224
    Cl(f) = 6.59661
    Cl(r) = -6.84783

Time = 83

smoothSolver:  Solving for Ux, Initial residual = 0.00126192, Final residual = 9.19313e-05, No Iterations 6
smoothSolver:  Solving for Uy, Initial residual = 0.011104, Final residual = 0.000914639, No Iterations 5
smoothSolver:  Solving for Uz, Initial residual = 0.0100374, Final residual = 0.000883967, No Iterations 5
GAMG:  Solving for p, Initial residual = 0.00459644, Final residual = 2.09056e-05, No Iterations 4
time step continuity errors : sum local = 8.34219e-05, global = -6.84388e-07, cumulative = 0.000936423
smoothSolver:  Solving for omega, Initial residual = 9.84358e-05, Final residual = 6.59586e-06, No Iterations 3
smoothSolver:  Solving for k, Initial residual = 0.000980997, Final residual = 5.90966e-05, No Iterations 3
ExecutionTime = 49.25 s  ClockTime = 49 s

forceCoeffs forceCoeffs1 write:
    Cm    = 6.71908
    Cd    = 2.26713
    Cl    = -0.241789
    Cl(f) = 6.59819
    Cl(r) = -6.83998

Time = 84

smoothSolver:  Solving for Ux, Initial residual = 0.0012647, Final residual = 9.42091e-05, No Iterations 6
smoothSolver:  Solving for Uy, Initial residual = 0.011067, Final residual = 0.000928464, No Iterations 5
smoothSolver:  Solving for Uz, Initial residual = 0.00999843, Final residual = 0.000886741, No Iterations 5
GAMG:  Solving for p, Initial residual = 0.00459178, Final residual = 2.05752e-05, No Iterations 4
time step continuity errors : sum local = 8.21339e-05, global = -1.03734e-06, cumulative = 0.000935385
smoothSolver:  Solving for omega, Initial residual = 9.89709e-05, Final residual = 6.56521e-06, No Iterations 3
[...]
ExecutionTime = 272.3 s  ClockTime = 273 s

forceCoeffs forceCoeffs1 write:
    Cm    = 5.77847
    Cd    = 2.1634
    Cl    = 0.624779
    Cl(f) = 6.09086
    Cl(r) = -5.46608

Time = 480

smoothSolver:  Solving for Ux, Initial residual = 0.00231216, Final residual = 0.000156323, No Iterations 6
smoothSolver:  Solving for Uy, Initial residual = 0.0222308, Final residual = 0.00215163, No Iterations 5
smoothSolver:  Solving for Uz, Initial residual = 0.0159897, Final residual = 0.0011227, No Iterations 6
GAMG:  Solving for p, Initial residual = 0.00928527, Final residual = 5.30408e-05, No Iterations 4
time step continuity errors : sum local = 0.000191844, global = -9.86395e-07, cumulative = 0.000621893
smoothSolver:  Solving for omega, Initial residual = 0.000121077, Final residual = 6.25723e-06, No Iterations 3
smoothSolver:  Solving for k, Initial residual = 0.00215577, Final residual = 0.000108446, No Iterations 3
ExecutionTime = 272.85 s  ClockTime = 273 s

forceCoeffs forceCoeffs1 write:
    Cm    = 5.77344
    Cd    = 2.15887
    Cl    = 0.614225
    Cl(f) = 6.08055
    Cl(r) = -5.46633

Time = 481

smoothSolver:  Solving for Ux, Initial residual = 0.00236146, Final residual = 0.000159027, No Iterations 6
smoothSolver:  Solving for Uy, Initial residual = 0.0220272, Final residual = 0.00215278, No Iterations 5
smoothSolver:  Solving for Uz, Initial residual = 0.0161309, Final residual = 0.00115962, No Iterations 6
GAMG:  Solving for p, Initial residual = 0.0086649, Final residual = 5.9016e-05, No Iterations 4
time step continuity errors : sum local = 0.000214391, global = -6.88266e-06, cumulative = 0.00061501
smoothSolver:  Solving for omega, Initial residual = 0.000122339, Final residual = 6.2663e-06, No Iterations 3
smoothSolver:  Solving for k, Initial residual = 0.00225119, Final residual = 0.000110489, No Iterations 3
ExecutionTime = 273.43 s  ClockTime = 274 s

forceCoeffs forceCoeffs1 write:
    Cm    = 5.77354
    Cd    = 2.1561
    Cl    = 0.603851
    Cl(f) = 6.07546
    Cl(r) = -5.47161

Time = 482

smoothSolver:  Solving for Ux, Initial residual = 0.00245706, Final residual = 0.000164035, No Iterations 6
smoothSolver:  Solving for Uy, Initial residual = 0.0219181, Final residual = 0.00216784, No Iterations 5
smoothSolver:  Solving for Uz, Initial residual = 0.016533, Final residual = 0.00120164, No Iterations 6
GAMG:  Solving for p, Initial residual = 0.00851029, Final residual = 6.40641e-05, No Iterations 4
time step continuity errors : sum local = 0.000233317, global = -1.06933e-05, cumulative = 0.000604317
smoothSolver:  Solving for omega, Initial residual = 0.000125806, Final residual = 6.38958e-06, No Iterations 3
smoothSolver:  Solving for k, Initial residual = 0.00240576, Final residual = 0.000116755, No Iterations 3
ExecutionTime = 273.98 s  ClockTime = 274 s

forceCoeffs forceCoeffs1 write:
    Cm    = 5.77964
    Cd    = 2.15549
    Cl    = 0.594089
    Cl(f) = 6.07669
    Cl(r) = -5.4826

Time = 483

smoothSolver:  Solving for Ux, Initial residual = 0.00257781, Final residual = 0.000168968, No Iterations 6
smoothSolver:  Solving for Uy, Initial residual = 0.0220913, Final residual = 0.00217332, No Iterations 5
smoothSolver:  Solving for Uz, Initial residual = 0.0171315, Final residual = 0.00124412, No Iterations 6
GAMG:  Solving for p, Initial residual = 0.00898607, Final residual = 6.7194e-05, No Iterations 4
time step continuity errors : sum local = 0.000244797, global = -1.11535e-05, cumulative = 0.000593164
smoothSolver:  Solving for omega, Initial residual = 0.000128905, Final residual = 6.55735e-06, No Iterations 3
smoothSolver:  Solving for k, Initial residual = 0.00251005, Final residual = 0.000124288, No Iterations 3
ExecutionTime = 274.55 s  ClockTime = 275 s

forceCoeffs forceCoeffs1 write:
    Cm    = 5.79268
    Cd    = 2.15734
    Cl    = 0.58507
    Cl(f) = 6.08521
    Cl(r) = -5.50014

Time = 484

smoothSolver:  Solving for Ux, Initial residual = 0.00271005, Final residual = 0.000172781, No Iterations 6
smoothSolver:  Solving for Uy, Initial residual = 0.0227381, Final residual = 0.00217514, No Iterations 5
smoothSolver:  Solving for Uz, Initial residual = 0.0178794, Final residual = 0.00128423, No Iterations 6
GAMG:  Solving for p, Initial residual = 0.00990885, Final residual = 6.84293e-05, No Iterations 4
time step continuity errors : sum local = 0.000248868, global = -9.43766e-06, cumulative = 0.000583726
smoothSolver:  Solving for omega, Initial residual = 0.000131615, Final residual = 6.73485e-06, No Iterations 3
smoothSolver:  Solving for k, Initial residual = 0.00265069, Final residual = 0.000134269, No Iterations 3
ExecutionTime = 275.11 s  ClockTime = 276 s

forceCoeffs forceCoeffs1 write:
    Cm    = 5.81219
    Cd    = 2.16169
    Cl    = 0.577389
    Cl(f) = 6.10088
    Cl(r) = -5.52349

Time = 485

smoothSolver:  Solving for Ux, Initial residual = 0.00281047, Final residual = 0.000280335, No Iterations 5
smoothSolver:  Solving for Uy, Initial residual = 0.0234187, Final residual = 0.00222218, No Iterations 5
smoothSolver:  Solving for Uz, Initial residual = 0.0187379, Final residual = 0.00131362, No Iterations 6
GAMG:  Solving for p, Initial residual = 0.0108874, Final residual = 6.95083e-05, No Iterations 4
time step continuity errors : sum local = 0.000251818, global = -5.67663e-06, cumulative = 0.000578049
smoothSolver:  Solving for omega, Initial residual = 0.00013194, Final residual = 6.83412e-06, No Iterations 3
smoothSolver:  Solving for k, Initial residual = 0.00275644, Final residual = 0.000142218, No Iterations 3
ExecutionTime = 275.67 s  ClockTime = 276 s

forceCoeffs forceCoeffs1 write:
    Cm    = 5.83334
    Cd    = 2.16751
    Cl    = 0.572992
    Cl(f) = 6.11984
    Cl(r) = -5.54684

Time = 486

smoothSolver:  Solving for Ux, Initial residual = 0.00289183, Final residual = 0.000278441, No Iterations 5
smoothSolver:  Solving for Uy, Initial residual = 0.0240862, Final residual = 0.00230387, No Iterations 5
smoothSolver:  Solving for Uz, Initial residual = 0.0194399, Final residual = 0.00130582, No Iterations 6
GAMG:  Solving for p, Initial residual = 0.0117645, Final residual = 6.97826e-05, No Iterations 4
time step continuity errors : sum local = 0.000251536, global = -6.40567e-07, cumulative = 0.000577409
smoothSolver:  Solving for omega, Initial residual = 0.000131643, Final residual = 6.88981e-06, No Iterations 3
smoothSolver:  Solving for k, Initial residual = 0.00280846, Final residual = 0.000146074, No Iterations 3
ExecutionTime = 276.23 s  ClockTime = 277 s

forceCoeffs forceCoeffs1 write:
    Cm    = 5.85176
    Cd    = 2.17385
    Cl    = 0.573575
    Cl(f) = 6.13854
    Cl(r) = -5.56497

Time = 487

smoothSolver:  Solving for Ux, Initial residual = 0.00298249, Final residual = 0.0002755, No Iterations 5
smoothSolver:  Solving for Uy, Initial residual = 0.0251002, Final residual = 0.00238364, No Iterations 5
smoothSolver:  Solving for Uz, Initial residual = 0.0196738, Final residual = 0.00195393, No Iterations 5
GAMG:  Solving for p, Initial residual = 0.0125135, Final residual = 6.44577e-05, No Iterations 4
time step continuity errors : sum local = 0.000231061, global = 3.22781e-06, cumulative = 0.000580637
smoothSolver:  Solving for omega, Initial residual = 0.000131305, Final residual = 7.04225e-06, No Iterations 3
smoothSolver:  Solving for k, Initial residual = 0.00282416, Final residual = 0.000142042, No Iterations 3
ExecutionTime = 276.79 s  ClockTime = 277 s

forceCoeffs forceCoeffs1 write:
    Cm    = 5.86251
    Cd    = 2.17929
    Cl    = 0.579849
    Cl(f) = 6.15244
    Cl(r) = -5.57259

Time = 488

smoothSolver:  Solving for Ux, Initial residual = 0.00296922, Final residual = 0.000275484, No Iterations 5
smoothSolver:  Solving for Uy, Initial residual = 0.0256361, Final residual = 0.00243593, No Iterations 5
smoothSolver:  Solving for Uz, Initial residual = 0.0194097, Final residual = 0.00188146, No Iterations 5
GAMG:  Solving for p, Initial residual = 0.0131261, Final residual = 5.72495e-05, No Iterations 4
time step continuity errors : sum local = 0.000204072, global = 5.22542e-06, cumulative = 0.000585862
smoothSolver:  Solving for omega, Initial residual = 0.00013374, Final residual = 7.16325e-06, No Iterations 3
smoothSolver:  Solving for k, Initial residual = 0.00276342, Final residual = 0.000130324, No Iterations 3
ExecutionTime = 277.33 s  ClockTime = 278 s

forceCoeffs forceCoeffs1 write:
    Cm    = 5.86552
    Cd    = 2.18344
    Cl    = 0.590731
    Cl(f) = 6.16089
    Cl(r) = -5.57016

Time = 489

smoothSolver:  Solving for Ux, Initial residual = 0.00294206, Final residual = 0.000282302, No Iterations 5
smoothSolver:  Solving for Uy, Initial residual = 0.02563, Final residual = 0.00246075, No Iterations 5
smoothSolver:  Solving for Uz, Initial residual = 0.0191724, Final residual = 0.00186072, No Iterations 5
GAMG:  Solving for p, Initial residual = 0.0133912, Final residual = 5.12842e-05, No Iterations 4
time step continuity errors : sum local = 0.000181896, global = 4.53175e-06, cumulative = 0.000590394
smoothSolver:  Solving for omega, Initial residual = 0.000134932, Final residual = 7.31372e-06, No Iterations 3
smoothSolver:  Solving for k, Initial residual = 0.00264548, Final residual = 0.000118404, No Iterations 3
ExecutionTime = 277.9 s  ClockTime = 278 s

forceCoeffs forceCoeffs1 write:
    Cm    = 5.86251
    Cd    = 2.18621
    Cl    = 0.60402
    Cl(f) = 6.16452
    Cl(r) = -5.5605

Time = 490

smoothSolver:  Solving for Ux, Initial residual = 0.0029019, Final residual = 0.000190613, No Iterations 6
smoothSolver:  Solving for Uy, Initial residual = 0.0256585, Final residual = 0.00249052, No Iterations 5
smoothSolver:  Solving for Uz, Initial residual = 0.0191494, Final residual = 0.00188989, No Iterations 5
GAMG:  Solving for p, Initial residual = 0.0132515, Final residual = 5.10255e-05, No Iterations 4
time step continuity errors : sum local = 0.000180469, global = 2.41153e-06, cumulative = 0.000592805
smoothSolver:  Solving for omega, Initial residual = 0.000138997, Final residual = 7.58604e-06, No Iterations 3
smoothSolver:  Solving for k, Initial residual = 0.00255732, Final residual = 0.000112811, No Iterations 3
ExecutionTime = 278.45 s  ClockTime = 279 s

forceCoeffs forceCoeffs1 write:
    Cm    = 5.85554
    Cd    = 2.18776
    Cl    = 0.617918
    Cl(f) = 6.16449
    Cl(r) = -5.54658

Time = 491

smoothSolver:  Solving for Ux, Initial residual = 0.00284813, Final residual = 0.000203537, No Iterations 6
smoothSolver:  Solving for Uy, Initial residual = 0.025604, Final residual = 0.00253765, No Iterations 5
smoothSolver:  Solving for Uz, Initial residual = 0.0190793, Final residual = 0.00122224, No Iterations 6
GAMG:  Solving for p, Initial residual = 0.0128348, Final residual = 5.24705e-05, No Iterations 4
time step continuity errors : sum local = 0.000185651, global = 1.18839e-06, cumulative = 0.000593994
smoothSolver:  Solving for omega, Initial residual = 0.000141555, Final residual = 7.75765e-06, No Iterations 3
smoothSolver:  Solving for k, Initial residual = 0.0024799, Final residual = 0.000113933, No Iterations 3
ExecutionTime = 279.02 s  ClockTime = 279 s

forceCoeffs forceCoeffs1 write:
    Cm    = 5.84596
    Cd    = 2.18789
    Cl    = 0.630141
    Cl(f) = 6.16103
    Cl(r) = -5.53089

Time = 492

smoothSolver:  Solving for Ux, Initial residual = 0.00278967, Final residual = 0.000208078, No Iterations 6
smoothSolver:  Solving for Uy, Initial residual = 0.0254611, Final residual = 0.00164724, No Iterations 6
smoothSolver:  Solving for Uz, Initial residual = 0.0186153, Final residual = 0.00123747, No Iterations 6
GAMG:  Solving for p, Initial residual = 0.0122179, Final residual = 4.98855e-05, No Iterations 4
time step continuity errors : sum local = 0.000176984, global = 2.71965e-06, cumulative = 0.000596713
smoothSolver:  Solving for omega, Initial residual = 0.000139957, Final residual = 7.67972e-06, No Iterations 3
smoothSolver:  Solving for k, Initial residual = 0.00240208, Final residual = 0.000113609, No Iterations 3
ExecutionTime = 279.58 s  ClockTime = 280 s

forceCoeffs forceCoeffs1 write:
    Cm    = 5.83329
    Cd    = 2.1861
    Cl    = 0.639409
    Cl(f) = 6.15299
    Cl(r) = -5.51358

Time = 493

smoothSolver:  Solving for Ux, Initial residual = 0.00269512, Final residual = 0.000200145, No Iterations 6
smoothSolver:  Solving for Uy, Initial residual = 0.024675, Final residual = 0.00245141, No Iterations 5
smoothSolver:  Solving for Uz, Initial residual = 0.0180426, Final residual = 0.00121584, No Iterations 6
GAMG:  Solving for p, Initial residual = 0.0114957, Final residual = 4.53763e-05, No Iterations 4
time step continuity errors : sum local = 0.000161495, global = 4.64619e-06, cumulative = 0.00060136
smoothSolver:  Solving for omega, Initial residual = 0.000135575, Final residual = 7.4092e-06, No Iterations 3
smoothSolver:  Solving for k, Initial residual = 0.00230217, Final residual = 0.00011092, No Iterations 3
ExecutionTime = 280.15 s  ClockTime = 281 s

forceCoeffs forceCoeffs1 write:
    Cm    = 5.81813
    Cd    = 2.18241
    Cl    = 0.644841
    Cl(f) = 6.14055
    Cl(r) = -5.49571

Time = 494

smoothSolver:  Solving for Ux, Initial residual = 0.00256386, Final residual = 0.000183657, No Iterations 6
smoothSolver:  Solving for Uy, Initial residual = 0.0237222, Final residual = 0.00231199, No Iterations 5
smoothSolver:  Solving for Uz, Initial residual = 0.017263, Final residual = 0.00116221, No Iterations 6
GAMG:  Solving for p, Initial residual = 0.0107099, Final residual = 0.000106372, No Iterations 3
time step continuity errors : sum local = 0.000379752, global = 1.25786e-05, cumulative = 0.000613938
smoothSolver:  Solving for omega, Initial residual = 0.000129077, Final residual = 6.96882e-06, No Iterations 3
smoothSolver:  Solving for k, Initial residual = 0.00215276, Final residual = 0.000107282, No Iterations 3
ExecutionTime = 280.69 s  ClockTime = 281 s

forceCoeffs forceCoeffs1 write:
    Cm    = 5.80232
    Cd    = 2.17754
    Cl    = 0.646645
    Cl(f) = 6.12564
    Cl(r) = -5.479

Time = 495

smoothSolver:  Solving for Ux, Initial residual = 0.00239495, Final residual = 0.000159373, No Iterations 6
smoothSolver:  Solving for Uy, Initial residual = 0.0222858, Final residual = 0.00210171, No Iterations 5
smoothSolver:  Solving for Uz, Initial residual = 0.0162439, Final residual = 0.00107161, No Iterations 6
GAMG:  Solving for p, Initial residual = 0.00988422, Final residual = 9.68274e-05, No Iterations 3
time step continuity errors : sum local = 0.000346765, global = 8.64061e-06, cumulative = 0.000622579
smoothSolver:  Solving for omega, Initial residual = 0.000121481, Final residual = 6.47365e-06, No Iterations 3
smoothSolver:  Solving for k, Initial residual = 0.00201338, Final residual = 0.000101618, No Iterations 3
ExecutionTime = 281.25 s  ClockTime = 282 s

forceCoeffs forceCoeffs1 write:
    Cm    = 5.78585
    Cd    = 2.17178
    Cl    = 0.64593
    Cl(f) = 6.10881
    Cl(r) = -5.46288

Time = 496

smoothSolver:  Solving for Ux, Initial residual = 0.00220303, Final residual = 0.000211272, No Iterations 5
smoothSolver:  Solving for Uy, Initial residual = 0.0208129, Final residual = 0.00188107, No Iterations 5
smoothSolver:  Solving for Uz, Initial residual = 0.015215, Final residual = 0.00151231, No Iterations 5
GAMG:  Solving for p, Initial residual = 0.00907577, Final residual = 8.43266e-05, No Iterations 3
time step continuity errors : sum local = 0.000302851, global = 4.14881e-07, cumulative = 0.000622994
smoothSolver:  Solving for omega, Initial residual = 0.000114207, Final residual = 6.12992e-06, No Iterations 3
smoothSolver:  Solving for k, Initial residual = 0.00188141, Final residual = 9.58508e-05, No Iterations 3
ExecutionTime = 281.78 s  ClockTime = 282 s

forceCoeffs forceCoeffs1 write:
    Cm    = 5.77341
    Cd    = 2.16661
    Cl    = 0.642488
    Cl(f) = 6.09465
    Cl(r) = -5.45217

Time = 497

smoothSolver:  Solving for Ux, Initial residual = 0.00200519, Final residual = 0.000188606, No Iterations 5
smoothSolver:  Solving for Uy, Initial residual = 0.0193972, Final residual = 0.00168512, No Iterations 5
smoothSolver:  Solving for Uz, Initial residual = 0.0142307, Final residual = 0.00134588, No Iterations 5
GAMG:  Solving for p, Initial residual = 0.0083596, Final residual = 7.90668e-05, No Iterations 3
time step continuity errors : sum local = 0.000284689, global = -6.14787e-06, cumulative = 0.000616846
smoothSolver:  Solving for omega, Initial residual = 0.000107085, Final residual = 5.80489e-06, No Iterations 3
smoothSolver:  Solving for k, Initial residual = 0.00175686, Final residual = 9.04656e-05, No Iterations 3
ExecutionTime = 282.32 s  ClockTime = 283 s

forceCoeffs forceCoeffs1 write:
    Cm    = 5.76567
    Cd    = 2.16248
    Cl    = 0.637156
    Cl(f) = 6.08425
    Cl(r) = -5.44709

Time = 498

smoothSolver:  Solving for Ux, Initial residual = 0.00186662, Final residual = 0.000173246, No Iterations 5
smoothSolver:  Solving for Uy, Initial residual = 0.0180642, Final residual = 0.00153713, No Iterations 5
smoothSolver:  Solving for Uz, Initial residual = 0.0133467, Final residual = 0.00121477, No Iterations 5
GAMG:  Solving for p, Initial residual = 0.00768045, Final residual = 3.46514e-05, No Iterations 4
time step continuity errors : sum local = 0.000125053, global = -4.04042e-06, cumulative = 0.000612805
smoothSolver:  Solving for omega, Initial residual = 0.000101685, Final residual = 5.43277e-06, No Iterations 3
smoothSolver:  Solving for k, Initial residual = 0.00164444, Final residual = 8.50755e-05, No Iterations 3
ExecutionTime = 282.87 s  ClockTime = 283 s

forceCoeffs forceCoeffs1 write:
    Cm    = 5.76209
    Cd    = 2.15916
    Cl    = 0.629826
    Cl(f) = 6.077
    Cl(r) = -5.44717

Time = 499

smoothSolver:  Solving for Ux, Initial residual = 0.00178488, Final residual = 0.000170405, No Iterations 5
smoothSolver:  Solving for Uy, Initial residual = 0.0172123, Final residual = 0.0014529, No Iterations 5
smoothSolver:  Solving for Uz, Initial residual = 0.012874, Final residual = 0.00116997, No Iterations 5
GAMG:  Solving for p, Initial residual = 0.00708381, Final residual = 3.54607e-05, No Iterations 4
time step continuity errors : sum local = 0.000128228, global = -5.93325e-06, cumulative = 0.000606872
smoothSolver:  Solving for omega, Initial residual = 9.79468e-05, Final residual = 5.14276e-06, No Iterations 3
smoothSolver:  Solving for k, Initial residual = 0.00158462, Final residual = 8.17587e-05, No Iterations 3
ExecutionTime = 283.45 s  ClockTime = 284 s

forceCoeffs forceCoeffs1 write:
    Cm    = 5.76183
    Cd    = 2.15704
    Cl    = 0.622763
    Cl(f) = 6.07321
    Cl(r) = -5.45045

Time = 500

smoothSolver:  Solving for Ux, Initial residual = 0.00174317, Final residual = 0.000173614, No Iterations 5
smoothSolver:  Solving for Uy, Initial residual = 0.0163752, Final residual = 0.00139534, No Iterations 5
smoothSolver:  Solving for Uz, Initial residual = 0.0124767, Final residual = 0.0011905, No Iterations 5
GAMG:  Solving for p, Initial residual = 0.0066523, Final residual = 3.9716e-05, No Iterations 4
time step continuity errors : sum local = 0.000143847, global = -7.86326e-06, cumulative = 0.000599009
smoothSolver:  Solving for omega, Initial residual = 9.65132e-05, Final residual = 5.03826e-06, No Iterations 3
smoothSolver:  Solving for k, Initial residual = 0.00158068, Final residual = 8.09375e-05, No Iterations 3
ExecutionTime = 284.01 s  ClockTime = 284 s

streamLine streamLines write:
    seeded 20 particles
    Tracks:20
    Total samples:15805
    Writing data to "/home/apaaris/git/cfd/cc/postProcessing/sets/streamLines/500"
forceCoeffs forceCoeffs1 write:
    Cm    = 5.76435
    Cd    = 2.15601
    Cl    = 0.616259
    Cl(f) = 6.07248
    Cl(r) = -5.45623

End

Finalising parallel run
